*SPICE netlist created from BLIF module hash by blif2BSpice
.include /usr/share/qflow/tech/osu018/osu018_stdcells.sp
.subckt hash vdd gnd target<0> target<1> target<2> target<3> target<4> target<5> target<6> target<7> clk reset_L num_entradas<0> num_entradas<1> bounty_out<0> bounty_out<1> bounty_out<2> bounty_out<3> bounty_out<4> bounty_out<5> bounty_out<6> bounty_out<7> bounty_out<8> bounty_out<9> bounty_out<10> bounty_out<11> bounty_out<12> bounty_out<13> bounty_out<14> bounty_out<15> bounty_out<16> bounty_out<17> bounty_out<18> bounty_out<19> bounty_out<20> bounty_out<21> bounty_out<22> bounty_out<23> nonce_valido_out<0> nonce_valido_out<1> nonce_valido_out<2> nonce_valido_out<3> nonce_valido_out<4> nonce_valido_out<5> nonce_valido_out<6> nonce_valido_out<7> nonce_valido_out<8> nonce_valido_out<9> nonce_valido_out<10> nonce_valido_out<11> nonce_valido_out<12> nonce_valido_out<13> nonce_valido_out<14> nonce_valido_out<15> nonce_valido_out<16> nonce_valido_out<17> nonce_valido_out<18> nonce_valido_out<19> nonce_valido_out<20> nonce_valido_out<21> nonce_valido_out<22> nonce_valido_out<23> nonce_valido_out<24> nonce_valido_out<25> nonce_valido_out<26> nonce_valido_out<27> nonce_valido_out<28> nonce_valido_out<29> nonce_valido_out<30> nonce_valido_out<31> nonce<0> nonce<1> nonce<2> nonce<3> nonce<4> nonce<5> nonce<6> nonce<7> nonce<8> nonce<9> nonce<10> nonce<11> nonce<12> nonce<13> nonce<14> nonce<15> nonce<16> nonce<17> nonce<18> nonce<19> nonce<20> nonce<21> nonce<22> nonce<23> nonce<24> nonce<25> nonce<26> nonce<27> nonce<28> nonce<29> nonce<30> nonce<31> fin 
XBUFX2_1 vdd gnd clk clk_hier0_bF$buf7 BUFX2
XBUFX2_2 vdd gnd clk clk_hier0_bF$buf6 BUFX2
XBUFX2_3 vdd gnd clk clk_hier0_bF$buf5 BUFX2
XBUFX2_4 vdd gnd clk clk_hier0_bF$buf4 BUFX2
XBUFX2_5 vdd gnd clk clk_hier0_bF$buf3 BUFX2
XBUFX2_6 vdd gnd clk clk_hier0_bF$buf2 BUFX2
XBUFX2_7 vdd gnd clk clk_hier0_bF$buf1 BUFX2
XBUFX2_8 vdd gnd clk clk_hier0_bF$buf0 BUFX2
XBUFX4_1 vdd gnd _92_ _92__bF$buf6 BUFX4
XBUFX2_9 vdd gnd _92_ _92__bF$buf5 BUFX2
XBUFX2_10 vdd gnd _92_ _92__bF$buf4 BUFX2
XBUFX2_11 vdd gnd _92_ _92__bF$buf3 BUFX2
XBUFX2_12 vdd gnd _92_ _92__bF$buf2 BUFX2
XBUFX2_13 vdd gnd _92_ _92__bF$buf1 BUFX2
XBUFX2_14 vdd gnd _92_ _92__bF$buf0 BUFX2
XBUFX2_15 vdd gnd _2633_ _2633__bF$buf6 BUFX2
XBUFX2_16 vdd gnd _2633_ _2633__bF$buf5 BUFX2
XBUFX2_17 vdd gnd _2633_ _2633__bF$buf4 BUFX2
XBUFX2_18 vdd gnd _2633_ _2633__bF$buf3 BUFX2
XBUFX2_19 vdd gnd _2633_ _2633__bF$buf2 BUFX2
XBUFX2_20 vdd gnd _2633_ _2633__bF$buf1 BUFX2
XBUFX2_21 vdd gnd _2633_ _2633__bF$buf0 BUFX2
XBUFX2_22 vdd gnd _1202_ _1202__bF$buf5 BUFX2
XBUFX2_23 vdd gnd _1202_ _1202__bF$buf4 BUFX2
XBUFX2_24 vdd gnd _1202_ _1202__bF$buf3 BUFX2
XBUFX2_25 vdd gnd _1202_ _1202__bF$buf2 BUFX2
XBUFX2_26 vdd gnd _1202_ _1202__bF$buf1 BUFX2
XBUFX2_27 vdd gnd _1202_ _1202__bF$buf0 BUFX2
XBUFX4_2 vdd gnd clk_hier0_bF$buf7 clk_bF$buf76 BUFX4
XBUFX4_3 vdd gnd clk_hier0_bF$buf6 clk_bF$buf75 BUFX4
XBUFX4_4 vdd gnd clk_hier0_bF$buf5 clk_bF$buf74 BUFX4
XBUFX4_5 vdd gnd clk_hier0_bF$buf4 clk_bF$buf73 BUFX4
XBUFX4_6 vdd gnd clk_hier0_bF$buf3 clk_bF$buf72 BUFX4
XBUFX4_7 vdd gnd clk_hier0_bF$buf2 clk_bF$buf71 BUFX4
XBUFX4_8 vdd gnd clk_hier0_bF$buf1 clk_bF$buf70 BUFX4
XBUFX4_9 vdd gnd clk_hier0_bF$buf0 clk_bF$buf69 BUFX4
XBUFX4_10 vdd gnd clk_hier0_bF$buf7 clk_bF$buf68 BUFX4
XBUFX4_11 vdd gnd clk_hier0_bF$buf6 clk_bF$buf67 BUFX4
XBUFX4_12 vdd gnd clk_hier0_bF$buf5 clk_bF$buf66 BUFX4
XBUFX4_13 vdd gnd clk_hier0_bF$buf4 clk_bF$buf65 BUFX4
XBUFX4_14 vdd gnd clk_hier0_bF$buf3 clk_bF$buf64 BUFX4
XBUFX4_15 vdd gnd clk_hier0_bF$buf2 clk_bF$buf63 BUFX4
XBUFX4_16 vdd gnd clk_hier0_bF$buf1 clk_bF$buf62 BUFX4
XBUFX4_17 vdd gnd clk_hier0_bF$buf0 clk_bF$buf61 BUFX4
XBUFX4_18 vdd gnd clk_hier0_bF$buf7 clk_bF$buf60 BUFX4
XBUFX4_19 vdd gnd clk_hier0_bF$buf6 clk_bF$buf59 BUFX4
XBUFX4_20 vdd gnd clk_hier0_bF$buf5 clk_bF$buf58 BUFX4
XBUFX4_21 vdd gnd clk_hier0_bF$buf4 clk_bF$buf57 BUFX4
XBUFX4_22 vdd gnd clk_hier0_bF$buf3 clk_bF$buf56 BUFX4
XBUFX4_23 vdd gnd clk_hier0_bF$buf2 clk_bF$buf55 BUFX4
XBUFX4_24 vdd gnd clk_hier0_bF$buf1 clk_bF$buf54 BUFX4
XBUFX4_25 vdd gnd clk_hier0_bF$buf0 clk_bF$buf53 BUFX4
XBUFX4_26 vdd gnd clk_hier0_bF$buf7 clk_bF$buf52 BUFX4
XBUFX4_27 vdd gnd clk_hier0_bF$buf6 clk_bF$buf51 BUFX4
XBUFX4_28 vdd gnd clk_hier0_bF$buf5 clk_bF$buf50 BUFX4
XBUFX4_29 vdd gnd clk_hier0_bF$buf4 clk_bF$buf49 BUFX4
XBUFX4_30 vdd gnd clk_hier0_bF$buf3 clk_bF$buf48 BUFX4
XBUFX4_31 vdd gnd clk_hier0_bF$buf2 clk_bF$buf47 BUFX4
XBUFX4_32 vdd gnd clk_hier0_bF$buf1 clk_bF$buf46 BUFX4
XBUFX4_33 vdd gnd clk_hier0_bF$buf0 clk_bF$buf45 BUFX4
XBUFX4_34 vdd gnd clk_hier0_bF$buf7 clk_bF$buf44 BUFX4
XBUFX4_35 vdd gnd clk_hier0_bF$buf6 clk_bF$buf43 BUFX4
XBUFX4_36 vdd gnd clk_hier0_bF$buf5 clk_bF$buf42 BUFX4
XBUFX4_37 vdd gnd clk_hier0_bF$buf4 clk_bF$buf41 BUFX4
XBUFX4_38 vdd gnd clk_hier0_bF$buf3 clk_bF$buf40 BUFX4
XBUFX4_39 vdd gnd clk_hier0_bF$buf2 clk_bF$buf39 BUFX4
XBUFX4_40 vdd gnd clk_hier0_bF$buf1 clk_bF$buf38 BUFX4
XBUFX4_41 vdd gnd clk_hier0_bF$buf0 clk_bF$buf37 BUFX4
XBUFX4_42 vdd gnd clk_hier0_bF$buf7 clk_bF$buf36 BUFX4
XBUFX4_43 vdd gnd clk_hier0_bF$buf6 clk_bF$buf35 BUFX4
XBUFX4_44 vdd gnd clk_hier0_bF$buf5 clk_bF$buf34 BUFX4
XBUFX4_45 vdd gnd clk_hier0_bF$buf4 clk_bF$buf33 BUFX4
XBUFX4_46 vdd gnd clk_hier0_bF$buf3 clk_bF$buf32 BUFX4
XBUFX4_47 vdd gnd clk_hier0_bF$buf2 clk_bF$buf31 BUFX4
XBUFX4_48 vdd gnd clk_hier0_bF$buf1 clk_bF$buf30 BUFX4
XBUFX4_49 vdd gnd clk_hier0_bF$buf0 clk_bF$buf29 BUFX4
XBUFX4_50 vdd gnd clk_hier0_bF$buf7 clk_bF$buf28 BUFX4
XBUFX4_51 vdd gnd clk_hier0_bF$buf6 clk_bF$buf27 BUFX4
XBUFX4_52 vdd gnd clk_hier0_bF$buf5 clk_bF$buf26 BUFX4
XBUFX4_53 vdd gnd clk_hier0_bF$buf4 clk_bF$buf25 BUFX4
XBUFX4_54 vdd gnd clk_hier0_bF$buf3 clk_bF$buf24 BUFX4
XBUFX4_55 vdd gnd clk_hier0_bF$buf2 clk_bF$buf23 BUFX4
XBUFX4_56 vdd gnd clk_hier0_bF$buf1 clk_bF$buf22 BUFX4
XBUFX4_57 vdd gnd clk_hier0_bF$buf0 clk_bF$buf21 BUFX4
XBUFX4_58 vdd gnd clk_hier0_bF$buf7 clk_bF$buf20 BUFX4
XBUFX4_59 vdd gnd clk_hier0_bF$buf6 clk_bF$buf19 BUFX4
XBUFX4_60 vdd gnd clk_hier0_bF$buf5 clk_bF$buf18 BUFX4
XBUFX4_61 vdd gnd clk_hier0_bF$buf4 clk_bF$buf17 BUFX4
XBUFX4_62 vdd gnd clk_hier0_bF$buf3 clk_bF$buf16 BUFX4
XBUFX4_63 vdd gnd clk_hier0_bF$buf2 clk_bF$buf15 BUFX4
XBUFX4_64 vdd gnd clk_hier0_bF$buf1 clk_bF$buf14 BUFX4
XBUFX4_65 vdd gnd clk_hier0_bF$buf0 clk_bF$buf13 BUFX4
XBUFX4_66 vdd gnd clk_hier0_bF$buf7 clk_bF$buf12 BUFX4
XBUFX4_67 vdd gnd clk_hier0_bF$buf6 clk_bF$buf11 BUFX4
XBUFX4_68 vdd gnd clk_hier0_bF$buf5 clk_bF$buf10 BUFX4
XBUFX4_69 vdd gnd clk_hier0_bF$buf4 clk_bF$buf9 BUFX4
XBUFX4_70 vdd gnd clk_hier0_bF$buf3 clk_bF$buf8 BUFX4
XBUFX4_71 vdd gnd clk_hier0_bF$buf2 clk_bF$buf7 BUFX4
XBUFX4_72 vdd gnd clk_hier0_bF$buf1 clk_bF$buf6 BUFX4
XBUFX4_73 vdd gnd clk_hier0_bF$buf0 clk_bF$buf5 BUFX4
XBUFX4_74 vdd gnd clk_hier0_bF$buf7 clk_bF$buf4 BUFX4
XBUFX4_75 vdd gnd clk_hier0_bF$buf6 clk_bF$buf3 BUFX4
XBUFX4_76 vdd gnd clk_hier0_bF$buf5 clk_bF$buf2 BUFX4
XBUFX4_77 vdd gnd clk_hier0_bF$buf4 clk_bF$buf1 BUFX4
XBUFX4_78 vdd gnd clk_hier0_bF$buf3 clk_bF$buf0 BUFX4
XBUFX2_28 vdd gnd _117_ _117__bF$buf6 BUFX2
XBUFX2_29 vdd gnd _117_ _117__bF$buf5 BUFX2
XBUFX2_30 vdd gnd _117_ _117__bF$buf4 BUFX2
XBUFX2_31 vdd gnd _117_ _117__bF$buf3 BUFX2
XBUFX2_32 vdd gnd _117_ _117__bF$buf2 BUFX2
XBUFX2_33 vdd gnd _117_ _117__bF$buf1 BUFX2
XBUFX2_34 vdd gnd _117_ _117__bF$buf0 BUFX2
XBUFX2_35 vdd gnd _545_ _545__bF$buf4 BUFX2
XBUFX2_36 vdd gnd _545_ _545__bF$buf3 BUFX2
XBUFX2_37 vdd gnd _545_ _545__bF$buf2 BUFX2
XBUFX2_38 vdd gnd _545_ _545__bF$buf1 BUFX2
XBUFX2_39 vdd gnd _545_ _545__bF$buf0 BUFX2
XBUFX4_79 vdd gnd _142_ _142__bF$buf6 BUFX4
XBUFX4_80 vdd gnd _142_ _142__bF$buf5 BUFX4
XBUFX4_81 vdd gnd _142_ _142__bF$buf4 BUFX4
XBUFX4_82 vdd gnd _142_ _142__bF$buf3 BUFX4
XBUFX4_83 vdd gnd _142_ _142__bF$buf2 BUFX4
XBUFX4_84 vdd gnd _142_ _142__bF$buf1 BUFX4
XBUFX4_85 vdd gnd _142_ _142__bF$buf0 BUFX4
XBUFX2_40 vdd gnd _1549_ _1549__bF$buf3 BUFX2
XBUFX2_41 vdd gnd _1549_ _1549__bF$buf2 BUFX2
XBUFX2_42 vdd gnd _1549_ _1549__bF$buf1 BUFX2
XBUFX2_43 vdd gnd _1549_ _1549__bF$buf0 BUFX2
XBUFX2_44 vdd gnd _2470_ _2470__bF$buf3 BUFX2
XBUFX2_45 vdd gnd _2470_ _2470__bF$buf2 BUFX2
XBUFX2_46 vdd gnd _2470_ _2470__bF$buf1 BUFX2
XBUFX2_47 vdd gnd _2470_ _2470__bF$buf0 BUFX2
XBUFX2_48 vdd gnd _2625_ _2625__bF$buf6 BUFX2
XBUFX2_49 vdd gnd _2625_ _2625__bF$buf5 BUFX2
XBUFX2_50 vdd gnd _2625_ _2625__bF$buf4 BUFX2
XBUFX2_51 vdd gnd _2625_ _2625__bF$buf3 BUFX2
XBUFX2_52 vdd gnd _2625_ _2625__bF$buf2 BUFX2
XBUFX2_53 vdd gnd _2625_ _2625__bF$buf1 BUFX2
XBUFX2_54 vdd gnd _2625_ _2625__bF$buf0 BUFX2
XBUFX2_55 vdd gnd _1379_ _1379__bF$buf3 BUFX2
XBUFX2_56 vdd gnd _1379_ _1379__bF$buf2 BUFX2
XBUFX2_57 vdd gnd _1379_ _1379__bF$buf1 BUFX2
XBUFX2_58 vdd gnd _1379_ _1379__bF$buf0 BUFX2
XBUFX2_59 vdd gnd _2618_ _2618__bF$buf6 BUFX2
XBUFX2_60 vdd gnd _2618_ _2618__bF$buf5 BUFX2
XBUFX2_61 vdd gnd _2618_ _2618__bF$buf4 BUFX2
XBUFX2_62 vdd gnd _2618_ _2618__bF$buf3 BUFX2
XBUFX2_63 vdd gnd _2618_ _2618__bF$buf2 BUFX2
XBUFX2_64 vdd gnd _2618_ _2618__bF$buf1 BUFX2
XBUFX2_65 vdd gnd _2618_ _2618__bF$buf0 BUFX2
XBUFX4_86 vdd gnd _261_ _261__bF$buf15 BUFX4
XBUFX4_87 vdd gnd _261_ _261__bF$buf14 BUFX4
XBUFX4_88 vdd gnd _261_ _261__bF$buf13 BUFX4
XBUFX4_89 vdd gnd _261_ _261__bF$buf12 BUFX4
XBUFX4_90 vdd gnd _261_ _261__bF$buf11 BUFX4
XBUFX4_91 vdd gnd _261_ _261__bF$buf10 BUFX4
XBUFX4_92 vdd gnd _261_ _261__bF$buf9 BUFX4
XBUFX4_93 vdd gnd _261_ _261__bF$buf8 BUFX4
XBUFX4_94 vdd gnd _261_ _261__bF$buf7 BUFX4
XBUFX4_95 vdd gnd _261_ _261__bF$buf6 BUFX4
XBUFX4_96 vdd gnd _261_ _261__bF$buf5 BUFX4
XBUFX4_97 vdd gnd _261_ _261__bF$buf4 BUFX4
XBUFX4_98 vdd gnd _261_ _261__bF$buf3 BUFX4
XBUFX4_99 vdd gnd _261_ _261__bF$buf2 BUFX4
XBUFX4_100 vdd gnd _261_ _261__bF$buf1 BUFX4
XBUFX4_101 vdd gnd _261_ _261__bF$buf0 BUFX4
XBUFX2_66 vdd gnd _1205_ _1205__bF$buf3 BUFX2
XBUFX2_67 vdd gnd _1205_ _1205__bF$buf2 BUFX2
XBUFX2_68 vdd gnd _1205_ _1205__bF$buf1 BUFX2
XBUFX2_69 vdd gnd _1205_ _1205__bF$buf0 BUFX2
XBUFX2_70 vdd gnd _53_ _53__bF$buf6 BUFX2
XBUFX2_71 vdd gnd _53_ _53__bF$buf5 BUFX2
XBUFX2_72 vdd gnd _53_ _53__bF$buf4 BUFX2
XBUFX2_73 vdd gnd _53_ _53__bF$buf3 BUFX2
XBUFX2_74 vdd gnd _53_ _53__bF$buf2 BUFX2
XBUFX2_75 vdd gnd _53_ _53__bF$buf1 BUFX2
XBUFX2_76 vdd gnd _53_ _53__bF$buf0 BUFX2
XBUFX2_77 vdd gnd _2189_ _2189__bF$buf4 BUFX2
XBUFX2_78 vdd gnd _2189_ _2189__bF$buf3 BUFX2
XBUFX2_79 vdd gnd _2189_ _2189__bF$buf2 BUFX2
XBUFX2_80 vdd gnd _2189_ _2189__bF$buf1 BUFX2
XBUFX2_81 vdd gnd _2189_ _2189__bF$buf0 BUFX2
XBUFX2_82 vdd gnd comparador.valid comparador.valid_bF$buf5 BUFX2
XBUFX4_102 vdd gnd comparador.valid comparador.valid_bF$buf4 BUFX4
XBUFX2_83 vdd gnd comparador.valid comparador.valid_bF$buf3 BUFX2
XBUFX2_84 vdd gnd comparador.valid comparador.valid_bF$buf2 BUFX2
XBUFX2_85 vdd gnd comparador.valid comparador.valid_bF$buf1 BUFX2
XBUFX2_86 vdd gnd comparador.valid comparador.valid_bF$buf0 BUFX2
XBUFX2_87 vdd gnd _1380_ _1380__bF$buf6 BUFX2
XBUFX2_88 vdd gnd _1380_ _1380__bF$buf5 BUFX2
XBUFX2_89 vdd gnd _1380_ _1380__bF$buf4 BUFX2
XBUFX2_90 vdd gnd _1380_ _1380__bF$buf3 BUFX2
XBUFX2_91 vdd gnd _1380_ _1380__bF$buf2 BUFX2
XBUFX2_92 vdd gnd _1380_ _1380__bF$buf1 BUFX2
XBUFX2_93 vdd gnd _1380_ _1380__bF$buf0 BUFX2
XBUFX2_94 vdd gnd _1547_ _1547__bF$buf3 BUFX2
XBUFX2_95 vdd gnd _1547_ _1547__bF$buf2 BUFX2
XBUFX2_96 vdd gnd _1547_ _1547__bF$buf1 BUFX2
XBUFX2_97 vdd gnd _1547_ _1547__bF$buf0 BUFX2
XBUFX4_103 vdd gnd _2473_ _2473__bF$buf15 BUFX4
XBUFX4_104 vdd gnd _2473_ _2473__bF$buf14 BUFX4
XBUFX4_105 vdd gnd _2473_ _2473__bF$buf13 BUFX4
XBUFX4_106 vdd gnd _2473_ _2473__bF$buf12 BUFX4
XBUFX4_107 vdd gnd _2473_ _2473__bF$buf11 BUFX4
XBUFX4_108 vdd gnd _2473_ _2473__bF$buf10 BUFX4
XBUFX4_109 vdd gnd _2473_ _2473__bF$buf9 BUFX4
XBUFX4_110 vdd gnd _2473_ _2473__bF$buf8 BUFX4
XBUFX4_111 vdd gnd _2473_ _2473__bF$buf7 BUFX4
XBUFX4_112 vdd gnd _2473_ _2473__bF$buf6 BUFX4
XBUFX4_113 vdd gnd _2473_ _2473__bF$buf5 BUFX4
XBUFX4_114 vdd gnd _2473_ _2473__bF$buf4 BUFX4
XBUFX4_115 vdd gnd _2473_ _2473__bF$buf3 BUFX4
XBUFX4_116 vdd gnd _2473_ _2473__bF$buf2 BUFX4
XBUFX4_117 vdd gnd _2473_ _2473__bF$buf1 BUFX4
XBUFX4_118 vdd gnd _2473_ _2473__bF$buf0 BUFX4
XBUFX2_98 vdd gnd _1373_ _1373__bF$buf3 BUFX2
XBUFX2_99 vdd gnd _1373_ _1373__bF$buf2 BUFX2
XBUFX2_100 vdd gnd _1373_ _1373__bF$buf1 BUFX2
XBUFX2_101 vdd gnd _1373_ _1373__bF$buf0 BUFX2
XBUFX2_102 vdd gnd _1269_ _1269__bF$buf3 BUFX2
XBUFX2_103 vdd gnd _1269_ _1269__bF$buf2 BUFX2
XBUFX2_104 vdd gnd _1269_ _1269__bF$buf1 BUFX2
XBUFX2_105 vdd gnd _1269_ _1269__bF$buf0 BUFX2
XBUFX4_119 vdd gnd concatenador.count<1> concatenador.count_1_bF$buf6 BUFX4
XBUFX4_120 vdd gnd concatenador.count<1> concatenador.count_1_bF$buf5 BUFX4
XBUFX4_121 vdd gnd concatenador.count<1> concatenador.count_1_bF$buf4 BUFX4
XBUFX4_122 vdd gnd concatenador.count<1> concatenador.count_1_bF$buf3 BUFX4
XBUFX4_123 vdd gnd concatenador.count<1> concatenador.count_1_bF$buf2 BUFX4
XBUFX4_124 vdd gnd concatenador.count<1> concatenador.count_1_bF$buf1 BUFX4
XBUFX4_125 vdd gnd concatenador.count<1> concatenador.count_1_bF$buf0 BUFX4
XBUFX2_106 vdd gnd _1354_ _1354__bF$buf3 BUFX2
XBUFX2_107 vdd gnd _1354_ _1354__bF$buf2 BUFX2
XBUFX2_108 vdd gnd _1354_ _1354__bF$buf1 BUFX2
XBUFX2_109 vdd gnd _1354_ _1354__bF$buf0 BUFX2
XBUFX2_110 vdd gnd _10_ _10__bF$buf6 BUFX2
XBUFX2_111 vdd gnd _10_ _10__bF$buf5 BUFX2
XBUFX2_112 vdd gnd _10_ _10__bF$buf4 BUFX2
XBUFX2_113 vdd gnd _10_ _10__bF$buf3 BUFX2
XBUFX2_114 vdd gnd _10_ _10__bF$buf2 BUFX2
XBUFX2_115 vdd gnd _10_ _10__bF$buf1 BUFX2
XBUFX2_116 vdd gnd _10_ _10__bF$buf0 BUFX2
XBUFX2_117 vdd gnd _1_ _1__bF$buf5 BUFX2
XBUFX2_118 vdd gnd _1_ _1__bF$buf4 BUFX2
XBUFX2_119 vdd gnd _1_ _1__bF$buf3 BUFX2
XBUFX2_120 vdd gnd _1_ _1__bF$buf2 BUFX2
XBUFX2_121 vdd gnd _1_ _1__bF$buf1 BUFX2
XBUFX2_122 vdd gnd _1_ _1__bF$buf0 BUFX2
XBUFX4_126 vdd gnd reset_L reset_L_bF$buf11 BUFX4
XBUFX4_127 vdd gnd reset_L reset_L_bF$buf10 BUFX4
XBUFX4_128 vdd gnd reset_L reset_L_bF$buf9 BUFX4
XBUFX4_129 vdd gnd reset_L reset_L_bF$buf8 BUFX4
XBUFX4_130 vdd gnd reset_L reset_L_bF$buf7 BUFX4
XBUFX4_131 vdd gnd reset_L reset_L_bF$buf6 BUFX4
XBUFX4_132 vdd gnd reset_L reset_L_bF$buf5 BUFX4
XBUFX4_133 vdd gnd reset_L reset_L_bF$buf4 BUFX4
XBUFX4_134 vdd gnd reset_L reset_L_bF$buf3 BUFX4
XBUFX4_135 vdd gnd reset_L reset_L_bF$buf2 BUFX4
XBUFX4_136 vdd gnd reset_L reset_L_bF$buf1 BUFX4
XBUFX4_137 vdd gnd reset_L reset_L_bF$buf0 BUFX4
XBUFX2_123 vdd gnd _558_ _558__bF$buf3 BUFX2
XBUFX2_124 vdd gnd _558_ _558__bF$buf2 BUFX2
XBUFX2_125 vdd gnd _558_ _558__bF$buf1 BUFX2
XBUFX2_126 vdd gnd _558_ _558__bF$buf0 BUFX2
XBUFX2_127 vdd gnd _2609_ _2609__bF$buf3 BUFX2
XBUFX2_128 vdd gnd _2609_ _2609__bF$buf2 BUFX2
XBUFX2_129 vdd gnd _2609_ _2609__bF$buf1 BUFX2
XBUFX2_130 vdd gnd _2609_ _2609__bF$buf0 BUFX2
XBUFX2_131 vdd gnd _1196_ _1196__bF$buf3 BUFX2
XBUFX2_132 vdd gnd _1196_ _1196__bF$buf2 BUFX2
XBUFX2_133 vdd gnd _1196_ _1196__bF$buf1 BUFX2
XBUFX2_134 vdd gnd _1196_ _1196__bF$buf0 BUFX2
XBUFX4_138 vdd gnd concatenador.count<0> concatenador.count_0_bF$buf11 BUFX4
XBUFX4_139 vdd gnd concatenador.count<0> concatenador.count_0_bF$buf10 BUFX4
XBUFX4_140 vdd gnd concatenador.count<0> concatenador.count_0_bF$buf9 BUFX4
XBUFX4_141 vdd gnd concatenador.count<0> concatenador.count_0_bF$buf8 BUFX4
XBUFX4_142 vdd gnd concatenador.count<0> concatenador.count_0_bF$buf7 BUFX4
XBUFX4_143 vdd gnd concatenador.count<0> concatenador.count_0_bF$buf6 BUFX4
XBUFX4_144 vdd gnd concatenador.count<0> concatenador.count_0_bF$buf5 BUFX4
XBUFX4_145 vdd gnd concatenador.count<0> concatenador.count_0_bF$buf4 BUFX4
XBUFX4_146 vdd gnd concatenador.count<0> concatenador.count_0_bF$buf3 BUFX4
XBUFX4_147 vdd gnd concatenador.count<0> concatenador.count_0_bF$buf2 BUFX4
XBUFX4_148 vdd gnd concatenador.count<0> concatenador.count_0_bF$buf1 BUFX4
XBUFX4_149 vdd gnd concatenador.count<0> concatenador.count_0_bF$buf0 BUFX4
XBUFX4_150 vdd gnd _2471_ _2471__bF$buf13 BUFX4
XBUFX4_151 vdd gnd _2471_ _2471__bF$buf12 BUFX4
XBUFX4_152 vdd gnd _2471_ _2471__bF$buf11 BUFX4
XBUFX4_153 vdd gnd _2471_ _2471__bF$buf10 BUFX4
XBUFX4_154 vdd gnd _2471_ _2471__bF$buf9 BUFX4
XBUFX4_155 vdd gnd _2471_ _2471__bF$buf8 BUFX4
XBUFX4_156 vdd gnd _2471_ _2471__bF$buf7 BUFX4
XBUFX4_157 vdd gnd _2471_ _2471__bF$buf6 BUFX4
XBUFX4_158 vdd gnd _2471_ _2471__bF$buf5 BUFX4
XBUFX4_159 vdd gnd _2471_ _2471__bF$buf4 BUFX4
XBUFX4_160 vdd gnd _2471_ _2471__bF$buf3 BUFX4
XBUFX4_161 vdd gnd _2471_ _2471__bF$buf2 BUFX4
XBUFX4_162 vdd gnd _2471_ _2471__bF$buf1 BUFX4
XBUFX4_163 vdd gnd _2471_ _2471__bF$buf0 BUFX4
XBUFX2_135 vdd gnd _0_<0> bounty_out<0> BUFX2
XBUFX2_136 vdd gnd _0_<1> bounty_out<1> BUFX2
XBUFX2_137 vdd gnd _0_<2> bounty_out<2> BUFX2
XBUFX2_138 vdd gnd _0_<3> bounty_out<3> BUFX2
XBUFX2_139 vdd gnd _0_<4> bounty_out<4> BUFX2
XBUFX2_140 vdd gnd _0_<5> bounty_out<5> BUFX2
XBUFX2_141 vdd gnd _0_<6> bounty_out<6> BUFX2
XBUFX2_142 vdd gnd _0_<7> bounty_out<7> BUFX2
XBUFX2_143 vdd gnd _0_<8> bounty_out<8> BUFX2
XBUFX2_144 vdd gnd _0_<9> bounty_out<9> BUFX2
XBUFX2_145 vdd gnd _0_<10> bounty_out<10> BUFX2
XBUFX2_146 vdd gnd _0_<11> bounty_out<11> BUFX2
XBUFX2_147 vdd gnd _0_<12> bounty_out<12> BUFX2
XBUFX2_148 vdd gnd _0_<13> bounty_out<13> BUFX2
XBUFX2_149 vdd gnd _0_<14> bounty_out<14> BUFX2
XBUFX2_150 vdd gnd _0_<15> bounty_out<15> BUFX2
XBUFX2_151 vdd gnd _0_<16> bounty_out<16> BUFX2
XBUFX2_152 vdd gnd _0_<17> bounty_out<17> BUFX2
XBUFX2_153 vdd gnd _0_<18> bounty_out<18> BUFX2
XBUFX2_154 vdd gnd _0_<19> bounty_out<19> BUFX2
XBUFX2_155 vdd gnd _0_<20> bounty_out<20> BUFX2
XBUFX2_156 vdd gnd _0_<21> bounty_out<21> BUFX2
XBUFX2_157 vdd gnd _0_<22> bounty_out<22> BUFX2
XBUFX2_158 vdd gnd _0_<23> bounty_out<23> BUFX2
XBUFX2_159 vdd gnd _1__bF$buf5 fin BUFX2
XBUFX2_160 vdd gnd _2_<0> nonce<0> BUFX2
XBUFX2_161 vdd gnd _2_<1> nonce<1> BUFX2
XBUFX2_162 vdd gnd _2_<2> nonce<2> BUFX2
XBUFX2_163 vdd gnd _2_<3> nonce<3> BUFX2
XBUFX2_164 vdd gnd _2_<4> nonce<4> BUFX2
XBUFX2_165 vdd gnd _2_<5> nonce<5> BUFX2
XBUFX2_166 vdd gnd _2_<6> nonce<6> BUFX2
XBUFX2_167 vdd gnd _2_<7> nonce<7> BUFX2
XBUFX2_168 vdd gnd _2_<8> nonce<8> BUFX2
XBUFX2_169 vdd gnd _2_<9> nonce<9> BUFX2
XBUFX2_170 vdd gnd _2_<10> nonce<10> BUFX2
XBUFX2_171 vdd gnd _2_<11> nonce<11> BUFX2
XBUFX2_172 vdd gnd _2_<12> nonce<12> BUFX2
XBUFX2_173 vdd gnd _2_<13> nonce<13> BUFX2
XBUFX2_174 vdd gnd _2_<14> nonce<14> BUFX2
XBUFX2_175 vdd gnd _2_<15> nonce<15> BUFX2
XBUFX2_176 vdd gnd _2_<16> nonce<16> BUFX2
XBUFX2_177 vdd gnd _2_<17> nonce<17> BUFX2
XBUFX2_178 vdd gnd _2_<18> nonce<18> BUFX2
XBUFX2_179 vdd gnd _2_<19> nonce<19> BUFX2
XBUFX2_180 vdd gnd _2_<20> nonce<20> BUFX2
XBUFX2_181 vdd gnd _2_<21> nonce<21> BUFX2
XBUFX2_182 vdd gnd _2_<22> nonce<22> BUFX2
XBUFX2_183 vdd gnd _2_<23> nonce<23> BUFX2
XBUFX2_184 vdd gnd _2_<24> nonce<24> BUFX2
XBUFX2_185 vdd gnd _2_<25> nonce<25> BUFX2
XBUFX2_186 vdd gnd _2_<26> nonce<26> BUFX2
XBUFX2_187 vdd gnd _2_<27> nonce<27> BUFX2
XBUFX2_188 vdd gnd _2_<28> nonce<28> BUFX2
XBUFX2_189 vdd gnd _2_<29> nonce<29> BUFX2
XBUFX2_190 vdd gnd _2_<30> nonce<30> BUFX2
XBUFX2_191 vdd gnd _2_<31> nonce<31> BUFX2
XBUFX2_192 vdd gnd _3_<0> nonce_valido_out<0> BUFX2
XBUFX2_193 vdd gnd _3_<1> nonce_valido_out<1> BUFX2
XBUFX2_194 vdd gnd _3_<2> nonce_valido_out<2> BUFX2
XBUFX2_195 vdd gnd _3_<3> nonce_valido_out<3> BUFX2
XBUFX2_196 vdd gnd _3_<4> nonce_valido_out<4> BUFX2
XBUFX2_197 vdd gnd _3_<5> nonce_valido_out<5> BUFX2
XBUFX2_198 vdd gnd _3_<6> nonce_valido_out<6> BUFX2
XBUFX2_199 vdd gnd _3_<7> nonce_valido_out<7> BUFX2
XBUFX2_200 vdd gnd _3_<8> nonce_valido_out<8> BUFX2
XBUFX2_201 vdd gnd _3_<9> nonce_valido_out<9> BUFX2
XBUFX2_202 vdd gnd _3_<10> nonce_valido_out<10> BUFX2
XBUFX2_203 vdd gnd _3_<11> nonce_valido_out<11> BUFX2
XBUFX2_204 vdd gnd _3_<12> nonce_valido_out<12> BUFX2
XBUFX2_205 vdd gnd _3_<13> nonce_valido_out<13> BUFX2
XBUFX2_206 vdd gnd _3_<14> nonce_valido_out<14> BUFX2
XBUFX2_207 vdd gnd _3_<15> nonce_valido_out<15> BUFX2
XBUFX2_208 vdd gnd _3_<16> nonce_valido_out<16> BUFX2
XBUFX2_209 vdd gnd _3_<17> nonce_valido_out<17> BUFX2
XBUFX2_210 vdd gnd _3_<18> nonce_valido_out<18> BUFX2
XBUFX2_211 vdd gnd _3_<19> nonce_valido_out<19> BUFX2
XBUFX2_212 vdd gnd _3_<20> nonce_valido_out<20> BUFX2
XBUFX2_213 vdd gnd _3_<21> nonce_valido_out<21> BUFX2
XBUFX2_214 vdd gnd _3_<22> nonce_valido_out<22> BUFX2
XBUFX2_215 vdd gnd _3_<23> nonce_valido_out<23> BUFX2
XBUFX2_216 vdd gnd _3_<24> nonce_valido_out<24> BUFX2
XBUFX2_217 vdd gnd _3_<25> nonce_valido_out<25> BUFX2
XBUFX2_218 vdd gnd _3_<26> nonce_valido_out<26> BUFX2
XBUFX2_219 vdd gnd _3_<27> nonce_valido_out<27> BUFX2
XBUFX2_220 vdd gnd _3_<28> nonce_valido_out<28> BUFX2
XBUFX2_221 vdd gnd _3_<29> nonce_valido_out<29> BUFX2
XBUFX2_222 vdd gnd _3_<30> nonce_valido_out<30> BUFX2
XBUFX2_223 vdd gnd _3_<31> nonce_valido_out<31> BUFX2
XNAND2X1_1 vdd _4_<88> gnd reset_L_bF$buf11 RAM.rd_ptr<0> NAND2X1
XINVX1_1 _4_<88> _4_<89> vdd gnd INVX1
XNAND2X1_2 vdd _4_<92> gnd reset_L_bF$buf10 RAM.rd_ptr<1> NAND2X1
XINVX1_2 _4_<92> _4_<77> vdd gnd INVX1
XOR2X2_1 _4_<84> RAM.rd_ptr<1> vdd gnd _4_<88> OR2X2
XNOR2X1_1 vdd _4_<92> gnd _4_<94> RAM.rd_ptr<0> NOR2X1
XNAND3X1_1 RAM.rd_ptr<0> vdd gnd reset_L_bF$buf9 RAM.rd_ptr<1> _4_<93> NAND3X1
XOAI21X1_1 gnd vdd RAM.rd_ptr<0> RAM.rd_ptr<1> _4_<82> reset_L_bF$buf8 OAI21X1
XINVX1_3 _4_<82> _4_<95> vdd gnd INVX1
XNAND2X1_3 vdd _5_ gnd RAM.rd_ptr<0> RAM.rd_ptr<1> NAND2X1
XOR2X2_2 _6_ RAM.rd_ptr<1> vdd gnd RAM.rd_ptr<0> OR2X2
XNAND3X1_2 _5_ vdd gnd reset_L_bF$buf7 _6_ _4_<86> NAND3X1
XAOI21X1_1 gnd vdd RAM.rd_ptr<0> RAM.rd_ptr<1> _4_<46> _4_<82> AOI21X1
XINVX1_4 _4_<93> _4_<71> vdd gnd INVX1
XNOR2X1_2 vdd _4_<88> gnd _4_<58> RAM.rd_ptr<1> NOR2X1
XOR2X2_3 _4_<85> RAM.rd_ptr<0> vdd gnd _4_<92> OR2X2
XDFFPOSX1_1 vdd _4_<46> gnd RAM.entrada<46> clk_bF$buf76 DFFPOSX1
XDFFPOSX1_2 vdd _4_<58> gnd RAM.entrada<58> clk_bF$buf75 DFFPOSX1
XDFFPOSX1_3 vdd _4_<95> gnd RAM.entrada<95> clk_bF$buf74 DFFPOSX1
XDFFPOSX1_4 vdd _4_<71> gnd RAM.entrada<71> clk_bF$buf73 DFFPOSX1
XDFFPOSX1_5 vdd _4_<77> gnd RAM.entrada<77> clk_bF$buf72 DFFPOSX1
XDFFPOSX1_6 vdd _4_<82> gnd RAM.entrada<82> clk_bF$buf71 DFFPOSX1
XDFFPOSX1_7 vdd _4_<84> gnd RAM.entrada<84> clk_bF$buf70 DFFPOSX1
XDFFPOSX1_8 vdd _4_<85> gnd RAM.entrada<85> clk_bF$buf69 DFFPOSX1
XDFFPOSX1_9 vdd _4_<86> gnd RAM.entrada<86> clk_bF$buf68 DFFPOSX1
XDFFPOSX1_10 vdd _4_<88> gnd RAM.entrada<88> clk_bF$buf67 DFFPOSX1
XDFFPOSX1_11 vdd _4_<89> gnd RAM.entrada<89> clk_bF$buf66 DFFPOSX1
XDFFPOSX1_12 vdd _4_<92> gnd RAM.entrada<92> clk_bF$buf65 DFFPOSX1
XDFFPOSX1_13 vdd _4_<93> gnd RAM.entrada<93> clk_bF$buf64 DFFPOSX1
XDFFPOSX1_14 vdd _4_<94> gnd RAM.entrada<94> clk_bF$buf63 DFFPOSX1
XINVX8_1 vdd gnd reset_L_bF$buf6 _10_ INVX8
XINVX1_5 H<17> _11_ vdd gnd INVX1
XNOR2X1_3 vdd _11_ gnd _12_ target<1> NOR2X1
XINVX1_6 H<16> _13_ vdd gnd INVX1
XNAND2X1_4 vdd _14_ gnd target<0> _13_ NAND2X1
XNAND2X1_5 vdd _15_ gnd target<1> _11_ NAND2X1
XAOI21X1_2 gnd vdd _14_ _15_ _16_ _12_ AOI21X1
XAND2X2_1 vdd gnd target<3> H<19> _17_ AND2X2
XNOR2X1_4 vdd H<19> gnd _18_ target<3> NOR2X1
XNAND2X1_6 vdd _19_ gnd target<2> H<18> NAND2X1
XINVX1_7 _19_ _20_ vdd gnd INVX1
XNOR2X1_5 vdd H<18> gnd _21_ target<2> NOR2X1
XOAI22X1_1 gnd vdd _21_ _20_ _17_ _18_ _22_ OAI22X1
XINVX1_8 H<19> _23_ vdd gnd INVX1
XNOR2X1_6 vdd _23_ gnd _24_ target<3> NOR2X1
XNAND2X1_7 vdd _25_ gnd target<3> _23_ NAND2X1
XINVX1_9 H<18> _26_ vdd gnd INVX1
XNOR2X1_7 vdd _26_ gnd _27_ target<2> NOR2X1
XAOI21X1_3 gnd vdd _25_ _27_ _28_ _24_ AOI21X1
XOAI21X1_2 gnd vdd _22_ _16_ _29_ _28_ OAI21X1
XNAND2X1_8 vdd _30_ gnd target<7> H<23> NAND2X1
XINVX1_10 _30_ _31_ vdd gnd INVX1
XNOR2X1_8 vdd H<23> gnd _32_ target<7> NOR2X1
XNAND2X1_9 vdd _33_ gnd target<6> H<22> NAND2X1
XINVX1_11 _33_ _34_ vdd gnd INVX1
XNOR2X1_9 vdd H<22> gnd _35_ target<6> NOR2X1
XOAI22X1_2 gnd vdd _35_ _34_ _31_ _32_ _36_ OAI22X1
XINVX1_12 target<5> _37_ vdd gnd INVX1
XINVX1_13 target<4> _38_ vdd gnd INVX1
XAOI22X1_1 gnd vdd _38_ H<20> _39_ _37_ H<21> AOI22X1
XINVX1_14 H<21> _40_ vdd gnd INVX1
XINVX1_15 H<20> _41_ vdd gnd INVX1
XAOI22X1_2 gnd vdd target<4> _41_ _42_ _40_ target<5> AOI22X1
XNAND2X1_10 vdd _43_ gnd _39_ _42_ NAND2X1
XNOR2X1_10 vdd _43_ gnd _44_ _36_ NOR2X1
XINVX1_16 target<7> _45_ vdd gnd INVX1
XINVX1_17 H<23> _46_ vdd gnd INVX1
XINVX1_18 H<22> _47_ vdd gnd INVX1
XOAI22X1_3 gnd vdd _47_ target<6> _46_ target<7> _48_ OAI22X1
XOAI21X1_3 gnd vdd _45_ H<23> _49_ _48_ OAI21X1
XOAI22X1_4 gnd vdd _41_ target<4> _40_ target<5> _50_ OAI22X1
XOAI21X1_4 gnd vdd _37_ H<21> _51_ _50_ OAI21X1
XOAI21X1_5 gnd vdd _51_ _36_ _52_ _49_ OAI21X1
XAOI21X1_4 gnd vdd _44_ _29_ _53_ _52_ AOI21X1
XINVX1_19 H<9> _54_ vdd gnd INVX1
XNOR2X1_11 vdd _54_ gnd _55_ target<1> NOR2X1
XINVX1_20 H<8> _56_ vdd gnd INVX1
XNAND2X1_11 vdd _57_ gnd target<0> _56_ NAND2X1
XNAND2X1_12 vdd _58_ gnd target<1> _54_ NAND2X1
XAOI21X1_5 gnd vdd _57_ _58_ _59_ _55_ AOI21X1
XNAND2X1_13 vdd _60_ gnd target<3> H<11> NAND2X1
XINVX1_21 _60_ _61_ vdd gnd INVX1
XNOR2X1_12 vdd H<11> gnd _62_ target<3> NOR2X1
XNAND2X1_14 vdd _63_ gnd target<2> H<10> NAND2X1
XINVX1_22 _63_ _64_ vdd gnd INVX1
XNOR2X1_13 vdd H<10> gnd _65_ target<2> NOR2X1
XOAI22X1_5 gnd vdd _65_ _64_ _61_ _62_ _66_ OAI22X1
XINVX1_23 H<11> _67_ vdd gnd INVX1
XNOR2X1_14 vdd _67_ gnd _68_ target<3> NOR2X1
XNAND2X1_15 vdd _69_ gnd target<3> _67_ NAND2X1
XINVX1_24 H<10> _70_ vdd gnd INVX1
XNOR2X1_15 vdd _70_ gnd _71_ target<2> NOR2X1
XAOI21X1_6 gnd vdd _69_ _71_ _72_ _68_ AOI21X1
XOAI21X1_6 gnd vdd _66_ _59_ _73_ _72_ OAI21X1
XINVX1_25 H<14> _74_ vdd gnd INVX1
XNAND2X1_16 vdd _75_ gnd target<6> _74_ NAND2X1
XINVX1_26 H<15> _76_ vdd gnd INVX1
XNAND2X1_17 vdd _77_ gnd target<7> _76_ NAND2X1
XINVX1_27 target<6> _78_ vdd gnd INVX1
XAOI22X1_3 gnd vdd _78_ H<14> _79_ _45_ H<15> AOI22X1
XNAND3X1_3 _77_ vdd gnd _75_ _79_ _80_ NAND3X1
XAOI22X1_4 gnd vdd _38_ H<12> _81_ _37_ H<13> AOI22X1
XINVX1_28 H<13> _82_ vdd gnd INVX1
XINVX1_29 H<12> _83_ vdd gnd INVX1
XAOI22X1_5 gnd vdd target<4> _83_ _84_ _82_ target<5> AOI22X1
XNAND2X1_18 vdd _85_ gnd _81_ _84_ NAND2X1
XNOR2X1_16 vdd _80_ gnd _86_ _85_ NOR2X1
XOAI22X1_6 gnd vdd _83_ target<4> _82_ target<5> _87_ OAI22X1
XOAI21X1_7 gnd vdd _37_ H<13> _88_ _87_ OAI21X1
XOAI22X1_7 gnd vdd _74_ target<6> _76_ target<7> _89_ OAI22X1
XAOI21X1_7 gnd vdd _77_ _89_ _90_ _1__bF$buf4 AOI21X1
XOAI21X1_8 gnd vdd _80_ _88_ _91_ _90_ OAI21X1
XAOI21X1_8 gnd vdd _73_ _86_ _92_ _91_ AOI21X1
XNAND3X1_4 _53__bF$buf6 vdd gnd H<0> _92__bF$buf6 _93_ NAND3X1
XINVX1_30 target<1> _94_ vdd gnd INVX1
XNAND2X1_19 vdd _95_ gnd H<17> _94_ NAND2X1
XINVX1_31 target<0> _96_ vdd gnd INVX1
XOAI22X1_8 gnd vdd H<16> _96_ _94_ H<17> _97_ OAI22X1
XNAND2X1_20 vdd _98_ gnd _95_ _97_ NAND2X1
XNAND2X1_21 vdd _99_ gnd target<3> H<19> NAND2X1
XOR2X2_4 _100_ H<19> vdd gnd target<3> OR2X2
XINVX1_32 target<2> _101_ vdd gnd INVX1
XNAND2X1_22 vdd _102_ gnd _101_ _26_ NAND2X1
XAOI22X1_6 gnd vdd _102_ _19_ _103_ _99_ _100_ AOI22X1
XINVX1_33 target<3> _104_ vdd gnd INVX1
XNAND2X1_23 vdd _105_ gnd H<19> _104_ NAND2X1
XNOR2X1_17 vdd _104_ gnd _106_ H<19> NOR2X1
XNAND2X1_24 vdd _107_ gnd H<18> _101_ NAND2X1
XOAI21X1_9 gnd vdd _106_ _107_ _108_ _105_ OAI21X1
XAOI21X1_9 gnd vdd _103_ _98_ _109_ _108_ AOI21X1
XNAND2X1_25 vdd _110_ gnd _45_ _46_ NAND2X1
XNAND2X1_26 vdd _111_ gnd _78_ _47_ NAND2X1
XAOI22X1_7 gnd vdd _33_ _111_ _112_ _110_ _30_ AOI22X1
XNAND3X1_5 _42_ vdd gnd _39_ _112_ _113_ NAND3X1
XNAND2X1_27 vdd _114_ gnd target<7> _46_ NAND2X1
XAOI21X1_10 gnd vdd target<5> _40_ _115_ _39_ AOI21X1
XAOI22X1_8 gnd vdd _115_ _112_ _116_ _114_ _48_ AOI22X1
XOAI21X1_10 gnd vdd _109_ _113_ _117_ _116_ OAI21X1
XNAND2X1_28 vdd _118_ gnd H<9> _94_ NAND2X1
XOAI22X1_9 gnd vdd _96_ H<8> _94_ H<9> _119_ OAI22X1
XNAND2X1_29 vdd _120_ gnd _118_ _119_ NAND2X1
XOR2X2_5 _121_ H<11> vdd gnd target<3> OR2X2
XNAND2X1_30 vdd _122_ gnd _101_ _70_ NAND2X1
XAOI22X1_9 gnd vdd _122_ _63_ _123_ _60_ _121_ AOI22X1
XNAND2X1_31 vdd _124_ gnd H<11> _104_ NAND2X1
XNOR2X1_18 vdd _104_ gnd _125_ H<11> NOR2X1
XNAND2X1_32 vdd _126_ gnd H<10> _101_ NAND2X1
XOAI21X1_11 gnd vdd _125_ _126_ _127_ _124_ OAI21X1
XAOI21X1_11 gnd vdd _123_ _120_ _128_ _127_ AOI21X1
XNAND2X1_33 vdd _129_ gnd target<6> H<14> NAND2X1
XNAND2X1_34 vdd _130_ gnd _78_ _74_ NAND2X1
XNAND2X1_35 vdd _131_ gnd target<7> H<15> NAND2X1
XNAND2X1_36 vdd _132_ gnd _45_ _76_ NAND2X1
XAOI22X1_10 gnd vdd _131_ _132_ _133_ _130_ _129_ AOI22X1
XOAI22X1_10 gnd vdd H<12> _38_ _37_ H<13> _134_ OAI22X1
XNOR2X1_19 vdd _134_ gnd _135_ _87_ NOR2X1
XNAND2X1_37 vdd _136_ gnd _133_ _135_ NAND2X1
XAOI21X1_12 gnd vdd target<5> _82_ _137_ _81_ AOI21X1
XINVX1_34 _1__bF$buf3 _138_ vdd gnd INVX1
XNOR2X1_20 vdd _45_ gnd _139_ H<15> NOR2X1
XOAI21X1_12 gnd vdd _79_ _139_ _140_ _138_ OAI21X1
XAOI21X1_13 gnd vdd _133_ _137_ _141_ _140_ AOI21X1
XOAI21X1_13 gnd vdd _128_ _136_ _142_ _141_ OAI21X1
XOAI21X1_14 gnd vdd _117__bF$buf6 _142__bF$buf6 _143_ bounty<0> OAI21X1
XAOI21X1_14 gnd vdd _93_ _143_ _7_<0> _10__bF$buf6 AOI21X1
XNAND3X1_6 _53__bF$buf5 vdd gnd H<1> _92__bF$buf5 _144_ NAND3X1
XOAI21X1_15 gnd vdd _117__bF$buf5 _142__bF$buf5 _145_ bounty<1> OAI21X1
XAOI21X1_15 gnd vdd _144_ _145_ _7_<1> _10__bF$buf5 AOI21X1
XNAND3X1_7 _53__bF$buf4 vdd gnd H<2> _92__bF$buf4 _146_ NAND3X1
XOAI21X1_16 gnd vdd _117__bF$buf4 _142__bF$buf4 _147_ bounty<2> OAI21X1
XAOI21X1_16 gnd vdd _146_ _147_ _7_<2> _10__bF$buf4 AOI21X1
XNAND3X1_8 _53__bF$buf3 vdd gnd H<3> _92__bF$buf3 _148_ NAND3X1
XOAI21X1_17 gnd vdd _117__bF$buf3 _142__bF$buf3 _149_ bounty<3> OAI21X1
XAOI21X1_17 gnd vdd _148_ _149_ _7_<3> _10__bF$buf3 AOI21X1
XNAND3X1_9 _53__bF$buf2 vdd gnd H<4> _92__bF$buf2 _150_ NAND3X1
XOAI21X1_18 gnd vdd _117__bF$buf2 _142__bF$buf2 _151_ bounty<4> OAI21X1
XAOI21X1_18 gnd vdd _150_ _151_ _7_<4> _10__bF$buf2 AOI21X1
XNAND3X1_10 _53__bF$buf1 vdd gnd H<5> _92__bF$buf1 _152_ NAND3X1
XOAI21X1_19 gnd vdd _117__bF$buf1 _142__bF$buf1 _153_ bounty<5> OAI21X1
XAOI21X1_19 gnd vdd _152_ _153_ _7_<5> _10__bF$buf1 AOI21X1
XNAND3X1_11 _53__bF$buf0 vdd gnd H<6> _92__bF$buf0 _154_ NAND3X1
XOAI21X1_20 gnd vdd _117__bF$buf0 _142__bF$buf0 _155_ bounty<6> OAI21X1