* XSpice netlist created from SPICE and liberty sources by spi2xspice.py
*SPICE netlist created from BLIF module hash by blif2BSpice
.subckt hash a_vdd a_gnd a_target_0_ a_target_1_ a_target_2_ a_target_3_ a_target_4_ a_target_5_ a_target_6_ a_target_7_ a_clk a_reset_L a_num_entradas_0_ a_num_entradas_1_ a_bounty_out_0_ a_bounty_out_1_ a_bounty_out_2_ a_bounty_out_3_ a_bounty_out_4_ a_bounty_out_5_ a_bounty_out_6_ a_bounty_out_7_ a_bounty_out_8_ a_bounty_out_9_ a_bounty_out_10_ a_bounty_out_11_ a_bounty_out_12_ a_bounty_out_13_ a_bounty_out_14_ a_bounty_out_15_ a_bounty_out_16_ a_bounty_out_17_ a_bounty_out_18_ a_bounty_out_19_ a_bounty_out_20_ a_bounty_out_21_ a_bounty_out_22_ a_bounty_out_23_ a_nonce_valido_out_0_ a_nonce_valido_out_1_ a_nonce_valido_out_2_ a_nonce_valido_out_3_ a_nonce_valido_out_4_ a_nonce_valido_out_5_ a_nonce_valido_out_6_ a_nonce_valido_out_7_ a_nonce_valido_out_8_ a_nonce_valido_out_9_ a_nonce_valido_out_10_ a_nonce_valido_out_11_ a_nonce_valido_out_12_ a_nonce_valido_out_13_ a_nonce_valido_out_14_ a_nonce_valido_out_15_ a_nonce_valido_out_16_ a_nonce_valido_out_17_ a_nonce_valido_out_18_ a_nonce_valido_out_19_ a_nonce_valido_out_20_ a_nonce_valido_out_21_ a_nonce_valido_out_22_ a_nonce_valido_out_23_ a_nonce_valido_out_24_ a_nonce_valido_out_25_ a_nonce_valido_out_26_ a_nonce_valido_out_27_ a_nonce_valido_out_28_ a_nonce_valido_out_29_ a_nonce_valido_out_30_ a_nonce_valido_out_31_ a_nonce_0_ a_nonce_1_ a_nonce_2_ a_nonce_3_ a_nonce_4_ a_nonce_5_ a_nonce_6_ a_nonce_7_ a_nonce_8_ a_nonce_9_ a_nonce_10_ a_nonce_11_ a_nonce_12_ a_nonce_13_ a_nonce_14_ a_nonce_15_ a_nonce_16_ a_nonce_17_ a_nonce_18_ a_nonce_19_ a_nonce_20_ a_nonce_21_ a_nonce_22_ a_nonce_23_ a_nonce_24_ a_nonce_25_ a_nonce_26_ a_nonce_27_ a_nonce_28_ a_nonce_29_ a_nonce_30_ a_nonce_31_ a_fin
ABUFX2_1 [clk] clk_hier0_bF$buf7 d_lut_BUFX2
ABUFX2_2 [clk] clk_hier0_bF$buf6 d_lut_BUFX2
ABUFX2_3 [clk] clk_hier0_bF$buf5 d_lut_BUFX2
ABUFX2_4 [clk] clk_hier0_bF$buf4 d_lut_BUFX2
ABUFX2_5 [clk] clk_hier0_bF$buf3 d_lut_BUFX2
ABUFX2_6 [clk] clk_hier0_bF$buf2 d_lut_BUFX2
ABUFX2_7 [clk] clk_hier0_bF$buf1 d_lut_BUFX2
ABUFX2_8 [clk] clk_hier0_bF$buf0 d_lut_BUFX2
ABUFX4_1 [_92_] _92__bF$buf6 d_lut_BUFX4
ABUFX2_9 [_92_] _92__bF$buf5 d_lut_BUFX2
ABUFX2_10 [_92_] _92__bF$buf4 d_lut_BUFX2
ABUFX2_11 [_92_] _92__bF$buf3 d_lut_BUFX2
ABUFX2_12 [_92_] _92__bF$buf2 d_lut_BUFX2
ABUFX2_13 [_92_] _92__bF$buf1 d_lut_BUFX2
ABUFX2_14 [_92_] _92__bF$buf0 d_lut_BUFX2
ABUFX2_15 [_2633_] _2633__bF$buf6 d_lut_BUFX2
ABUFX2_16 [_2633_] _2633__bF$buf5 d_lut_BUFX2
ABUFX2_17 [_2633_] _2633__bF$buf4 d_lut_BUFX2
ABUFX2_18 [_2633_] _2633__bF$buf3 d_lut_BUFX2
ABUFX2_19 [_2633_] _2633__bF$buf2 d_lut_BUFX2
ABUFX2_20 [_2633_] _2633__bF$buf1 d_lut_BUFX2
ABUFX2_21 [_2633_] _2633__bF$buf0 d_lut_BUFX2
ABUFX2_22 [_1202_] _1202__bF$buf5 d_lut_BUFX2
ABUFX2_23 [_1202_] _1202__bF$buf4 d_lut_BUFX2
ABUFX2_24 [_1202_] _1202__bF$buf3 d_lut_BUFX2
ABUFX2_25 [_1202_] _1202__bF$buf2 d_lut_BUFX2
ABUFX2_26 [_1202_] _1202__bF$buf1 d_lut_BUFX2
ABUFX2_27 [_1202_] _1202__bF$buf0 d_lut_BUFX2
ABUFX4_2 [clk_hier0_bF$buf7] clk_bF$buf76 d_lut_BUFX4
ABUFX4_3 [clk_hier0_bF$buf6] clk_bF$buf75 d_lut_BUFX4
ABUFX4_4 [clk_hier0_bF$buf5] clk_bF$buf74 d_lut_BUFX4
ABUFX4_5 [clk_hier0_bF$buf4] clk_bF$buf73 d_lut_BUFX4
ABUFX4_6 [clk_hier0_bF$buf3] clk_bF$buf72 d_lut_BUFX4
ABUFX4_7 [clk_hier0_bF$buf2] clk_bF$buf71 d_lut_BUFX4
ABUFX4_8 [clk_hier0_bF$buf1] clk_bF$buf70 d_lut_BUFX4
ABUFX4_9 [clk_hier0_bF$buf0] clk_bF$buf69 d_lut_BUFX4
ABUFX4_10 [clk_hier0_bF$buf7] clk_bF$buf68 d_lut_BUFX4
ABUFX4_11 [clk_hier0_bF$buf6] clk_bF$buf67 d_lut_BUFX4
ABUFX4_12 [clk_hier0_bF$buf5] clk_bF$buf66 d_lut_BUFX4
ABUFX4_13 [clk_hier0_bF$buf4] clk_bF$buf65 d_lut_BUFX4
ABUFX4_14 [clk_hier0_bF$buf3] clk_bF$buf64 d_lut_BUFX4
ABUFX4_15 [clk_hier0_bF$buf2] clk_bF$buf63 d_lut_BUFX4
ABUFX4_16 [clk_hier0_bF$buf1] clk_bF$buf62 d_lut_BUFX4
ABUFX4_17 [clk_hier0_bF$buf0] clk_bF$buf61 d_lut_BUFX4
ABUFX4_18 [clk_hier0_bF$buf7] clk_bF$buf60 d_lut_BUFX4
ABUFX4_19 [clk_hier0_bF$buf6] clk_bF$buf59 d_lut_BUFX4
ABUFX4_20 [clk_hier0_bF$buf5] clk_bF$buf58 d_lut_BUFX4
ABUFX4_21 [clk_hier0_bF$buf4] clk_bF$buf57 d_lut_BUFX4
ABUFX4_22 [clk_hier0_bF$buf3] clk_bF$buf56 d_lut_BUFX4
ABUFX4_23 [clk_hier0_bF$buf2] clk_bF$buf55 d_lut_BUFX4
ABUFX4_24 [clk_hier0_bF$buf1] clk_bF$buf54 d_lut_BUFX4
ABUFX4_25 [clk_hier0_bF$buf0] clk_bF$buf53 d_lut_BUFX4
ABUFX4_26 [clk_hier0_bF$buf7] clk_bF$buf52 d_lut_BUFX4
ABUFX4_27 [clk_hier0_bF$buf6] clk_bF$buf51 d_lut_BUFX4
ABUFX4_28 [clk_hier0_bF$buf5] clk_bF$buf50 d_lut_BUFX4
ABUFX4_29 [clk_hier0_bF$buf4] clk_bF$buf49 d_lut_BUFX4
ABUFX4_30 [clk_hier0_bF$buf3] clk_bF$buf48 d_lut_BUFX4
ABUFX4_31 [clk_hier0_bF$buf2] clk_bF$buf47 d_lut_BUFX4
ABUFX4_32 [clk_hier0_bF$buf1] clk_bF$buf46 d_lut_BUFX4
ABUFX4_33 [clk_hier0_bF$buf0] clk_bF$buf45 d_lut_BUFX4
ABUFX4_34 [clk_hier0_bF$buf7] clk_bF$buf44 d_lut_BUFX4
ABUFX4_35 [clk_hier0_bF$buf6] clk_bF$buf43 d_lut_BUFX4
ABUFX4_36 [clk_hier0_bF$buf5] clk_bF$buf42 d_lut_BUFX4
ABUFX4_37 [clk_hier0_bF$buf4] clk_bF$buf41 d_lut_BUFX4
ABUFX4_38 [clk_hier0_bF$buf3] clk_bF$buf40 d_lut_BUFX4
ABUFX4_39 [clk_hier0_bF$buf2] clk_bF$buf39 d_lut_BUFX4
ABUFX4_40 [clk_hier0_bF$buf1] clk_bF$buf38 d_lut_BUFX4
ABUFX4_41 [clk_hier0_bF$buf0] clk_bF$buf37 d_lut_BUFX4
ABUFX4_42 [clk_hier0_bF$buf7] clk_bF$buf36 d_lut_BUFX4
ABUFX4_43 [clk_hier0_bF$buf6] clk_bF$buf35 d_lut_BUFX4
ABUFX4_44 [clk_hier0_bF$buf5] clk_bF$buf34 d_lut_BUFX4
ABUFX4_45 [clk_hier0_bF$buf4] clk_bF$buf33 d_lut_BUFX4
ABUFX4_46 [clk_hier0_bF$buf3] clk_bF$buf32 d_lut_BUFX4
ABUFX4_47 [clk_hier0_bF$buf2] clk_bF$buf31 d_lut_BUFX4
ABUFX4_48 [clk_hier0_bF$buf1] clk_bF$buf30 d_lut_BUFX4
ABUFX4_49 [clk_hier0_bF$buf0] clk_bF$buf29 d_lut_BUFX4
ABUFX4_50 [clk_hier0_bF$buf7] clk_bF$buf28 d_lut_BUFX4
ABUFX4_51 [clk_hier0_bF$buf6] clk_bF$buf27 d_lut_BUFX4
ABUFX4_52 [clk_hier0_bF$buf5] clk_bF$buf26 d_lut_BUFX4
ABUFX4_53 [clk_hier0_bF$buf4] clk_bF$buf25 d_lut_BUFX4
ABUFX4_54 [clk_hier0_bF$buf3] clk_bF$buf24 d_lut_BUFX4
ABUFX4_55 [clk_hier0_bF$buf2] clk_bF$buf23 d_lut_BUFX4
ABUFX4_56 [clk_hier0_bF$buf1] clk_bF$buf22 d_lut_BUFX4
ABUFX4_57 [clk_hier0_bF$buf0] clk_bF$buf21 d_lut_BUFX4
ABUFX4_58 [clk_hier0_bF$buf7] clk_bF$buf20 d_lut_BUFX4
ABUFX4_59 [clk_hier0_bF$buf6] clk_bF$buf19 d_lut_BUFX4
ABUFX4_60 [clk_hier0_bF$buf5] clk_bF$buf18 d_lut_BUFX4
ABUFX4_61 [clk_hier0_bF$buf4] clk_bF$buf17 d_lut_BUFX4
ABUFX4_62 [clk_hier0_bF$buf3] clk_bF$buf16 d_lut_BUFX4
ABUFX4_63 [clk_hier0_bF$buf2] clk_bF$buf15 d_lut_BUFX4
ABUFX4_64 [clk_hier0_bF$buf1] clk_bF$buf14 d_lut_BUFX4
ABUFX4_65 [clk_hier0_bF$buf0] clk_bF$buf13 d_lut_BUFX4
ABUFX4_66 [clk_hier0_bF$buf7] clk_bF$buf12 d_lut_BUFX4
ABUFX4_67 [clk_hier0_bF$buf6] clk_bF$buf11 d_lut_BUFX4
ABUFX4_68 [clk_hier0_bF$buf5] clk_bF$buf10 d_lut_BUFX4
ABUFX4_69 [clk_hier0_bF$buf4] clk_bF$buf9 d_lut_BUFX4
ABUFX4_70 [clk_hier0_bF$buf3] clk_bF$buf8 d_lut_BUFX4
ABUFX4_71 [clk_hier0_bF$buf2] clk_bF$buf7 d_lut_BUFX4
ABUFX4_72 [clk_hier0_bF$buf1] clk_bF$buf6 d_lut_BUFX4
ABUFX4_73 [clk_hier0_bF$buf0] clk_bF$buf5 d_lut_BUFX4
ABUFX4_74 [clk_hier0_bF$buf7] clk_bF$buf4 d_lut_BUFX4
ABUFX4_75 [clk_hier0_bF$buf6] clk_bF$buf3 d_lut_BUFX4
ABUFX4_76 [clk_hier0_bF$buf5] clk_bF$buf2 d_lut_BUFX4
ABUFX4_77 [clk_hier0_bF$buf4] clk_bF$buf1 d_lut_BUFX4
ABUFX4_78 [clk_hier0_bF$buf3] clk_bF$buf0 d_lut_BUFX4
ABUFX2_28 [_117_] _117__bF$buf6 d_lut_BUFX2
ABUFX2_29 [_117_] _117__bF$buf5 d_lut_BUFX2
ABUFX2_30 [_117_] _117__bF$buf4 d_lut_BUFX2
ABUFX2_31 [_117_] _117__bF$buf3 d_lut_BUFX2
ABUFX2_32 [_117_] _117__bF$buf2 d_lut_BUFX2
ABUFX2_33 [_117_] _117__bF$buf1 d_lut_BUFX2
ABUFX2_34 [_117_] _117__bF$buf0 d_lut_BUFX2
ABUFX2_35 [_545_] _545__bF$buf4 d_lut_BUFX2
ABUFX2_36 [_545_] _545__bF$buf3 d_lut_BUFX2
ABUFX2_37 [_545_] _545__bF$buf2 d_lut_BUFX2
ABUFX2_38 [_545_] _545__bF$buf1 d_lut_BUFX2
ABUFX2_39 [_545_] _545__bF$buf0 d_lut_BUFX2
ABUFX4_79 [_142_] _142__bF$buf6 d_lut_BUFX4
ABUFX4_80 [_142_] _142__bF$buf5 d_lut_BUFX4
ABUFX4_81 [_142_] _142__bF$buf4 d_lut_BUFX4
ABUFX4_82 [_142_] _142__bF$buf3 d_lut_BUFX4
ABUFX4_83 [_142_] _142__bF$buf2 d_lut_BUFX4
ABUFX4_84 [_142_] _142__bF$buf1 d_lut_BUFX4
ABUFX4_85 [_142_] _142__bF$buf0 d_lut_BUFX4
ABUFX2_40 [_1549_] _1549__bF$buf3 d_lut_BUFX2
ABUFX2_41 [_1549_] _1549__bF$buf2 d_lut_BUFX2
ABUFX2_42 [_1549_] _1549__bF$buf1 d_lut_BUFX2
ABUFX2_43 [_1549_] _1549__bF$buf0 d_lut_BUFX2
ABUFX2_44 [_2470_] _2470__bF$buf3 d_lut_BUFX2
ABUFX2_45 [_2470_] _2470__bF$buf2 d_lut_BUFX2
ABUFX2_46 [_2470_] _2470__bF$buf1 d_lut_BUFX2
ABUFX2_47 [_2470_] _2470__bF$buf0 d_lut_BUFX2
ABUFX2_48 [_2625_] _2625__bF$buf6 d_lut_BUFX2
ABUFX2_49 [_2625_] _2625__bF$buf5 d_lut_BUFX2
ABUFX2_50 [_2625_] _2625__bF$buf4 d_lut_BUFX2
ABUFX2_51 [_2625_] _2625__bF$buf3 d_lut_BUFX2
ABUFX2_52 [_2625_] _2625__bF$buf2 d_lut_BUFX2
ABUFX2_53 [_2625_] _2625__bF$buf1 d_lut_BUFX2
ABUFX2_54 [_2625_] _2625__bF$buf0 d_lut_BUFX2
ABUFX2_55 [_1379_] _1379__bF$buf3 d_lut_BUFX2
ABUFX2_56 [_1379_] _1379__bF$buf2 d_lut_BUFX2
ABUFX2_57 [_1379_] _1379__bF$buf1 d_lut_BUFX2
ABUFX2_58 [_1379_] _1379__bF$buf0 d_lut_BUFX2
ABUFX2_59 [_2618_] _2618__bF$buf6 d_lut_BUFX2
ABUFX2_60 [_2618_] _2618__bF$buf5 d_lut_BUFX2
ABUFX2_61 [_2618_] _2618__bF$buf4 d_lut_BUFX2
ABUFX2_62 [_2618_] _2618__bF$buf3 d_lut_BUFX2
ABUFX2_63 [_2618_] _2618__bF$buf2 d_lut_BUFX2
ABUFX2_64 [_2618_] _2618__bF$buf1 d_lut_BUFX2
ABUFX2_65 [_2618_] _2618__bF$buf0 d_lut_BUFX2
ABUFX4_86 [_261_] _261__bF$buf15 d_lut_BUFX4
ABUFX4_87 [_261_] _261__bF$buf14 d_lut_BUFX4
ABUFX4_88 [_261_] _261__bF$buf13 d_lut_BUFX4
ABUFX4_89 [_261_] _261__bF$buf12 d_lut_BUFX4
ABUFX4_90 [_261_] _261__bF$buf11 d_lut_BUFX4
ABUFX4_91 [_261_] _261__bF$buf10 d_lut_BUFX4
ABUFX4_92 [_261_] _261__bF$buf9 d_lut_BUFX4
ABUFX4_93 [_261_] _261__bF$buf8 d_lut_BUFX4
ABUFX4_94 [_261_] _261__bF$buf7 d_lut_BUFX4
ABUFX4_95 [_261_] _261__bF$buf6 d_lut_BUFX4
ABUFX4_96 [_261_] _261__bF$buf5 d_lut_BUFX4
ABUFX4_97 [_261_] _261__bF$buf4 d_lut_BUFX4
ABUFX4_98 [_261_] _261__bF$buf3 d_lut_BUFX4
ABUFX4_99 [_261_] _261__bF$buf2 d_lut_BUFX4
ABUFX4_100 [_261_] _261__bF$buf1 d_lut_BUFX4
ABUFX4_101 [_261_] _261__bF$buf0 d_lut_BUFX4
ABUFX2_66 [_1205_] _1205__bF$buf3 d_lut_BUFX2
ABUFX2_67 [_1205_] _1205__bF$buf2 d_lut_BUFX2
ABUFX2_68 [_1205_] _1205__bF$buf1 d_lut_BUFX2
ABUFX2_69 [_1205_] _1205__bF$buf0 d_lut_BUFX2
ABUFX2_70 [_53_] _53__bF$buf6 d_lut_BUFX2
ABUFX2_71 [_53_] _53__bF$buf5 d_lut_BUFX2
ABUFX2_72 [_53_] _53__bF$buf4 d_lut_BUFX2
ABUFX2_73 [_53_] _53__bF$buf3 d_lut_BUFX2
ABUFX2_74 [_53_] _53__bF$buf2 d_lut_BUFX2
ABUFX2_75 [_53_] _53__bF$buf1 d_lut_BUFX2
ABUFX2_76 [_53_] _53__bF$buf0 d_lut_BUFX2
ABUFX2_77 [_2189_] _2189__bF$buf4 d_lut_BUFX2
ABUFX2_78 [_2189_] _2189__bF$buf3 d_lut_BUFX2
ABUFX2_79 [_2189_] _2189__bF$buf2 d_lut_BUFX2
ABUFX2_80 [_2189_] _2189__bF$buf1 d_lut_BUFX2
ABUFX2_81 [_2189_] _2189__bF$buf0 d_lut_BUFX2
ABUFX2_82 [comparador.valid] comparador.valid_bF$buf5 d_lut_BUFX2
ABUFX4_102 [comparador.valid] comparador.valid_bF$buf4 d_lut_BUFX4
ABUFX2_83 [comparador.valid] comparador.valid_bF$buf3 d_lut_BUFX2
ABUFX2_84 [comparador.valid] comparador.valid_bF$buf2 d_lut_BUFX2
ABUFX2_85 [comparador.valid] comparador.valid_bF$buf1 d_lut_BUFX2
ABUFX2_86 [comparador.valid] comparador.valid_bF$buf0 d_lut_BUFX2
ABUFX2_87 [_1380_] _1380__bF$buf6 d_lut_BUFX2
ABUFX2_88 [_1380_] _1380__bF$buf5 d_lut_BUFX2
ABUFX2_89 [_1380_] _1380__bF$buf4 d_lut_BUFX2
ABUFX2_90 [_1380_] _1380__bF$buf3 d_lut_BUFX2
ABUFX2_91 [_1380_] _1380__bF$buf2 d_lut_BUFX2
ABUFX2_92 [_1380_] _1380__bF$buf1 d_lut_BUFX2
ABUFX2_93 [_1380_] _1380__bF$buf0 d_lut_BUFX2
ABUFX2_94 [_1547_] _1547__bF$buf3 d_lut_BUFX2
ABUFX2_95 [_1547_] _1547__bF$buf2 d_lut_BUFX2
ABUFX2_96 [_1547_] _1547__bF$buf1 d_lut_BUFX2
ABUFX2_97 [_1547_] _1547__bF$buf0 d_lut_BUFX2
ABUFX4_103 [_2473_] _2473__bF$buf15 d_lut_BUFX4
ABUFX4_104 [_2473_] _2473__bF$buf14 d_lut_BUFX4
ABUFX4_105 [_2473_] _2473__bF$buf13 d_lut_BUFX4
ABUFX4_106 [_2473_] _2473__bF$buf12 d_lut_BUFX4
ABUFX4_107 [_2473_] _2473__bF$buf11 d_lut_BUFX4
ABUFX4_108 [_2473_] _2473__bF$buf10 d_lut_BUFX4
ABUFX4_109 [_2473_] _2473__bF$buf9 d_lut_BUFX4
ABUFX4_110 [_2473_] _2473__bF$buf8 d_lut_BUFX4
ABUFX4_111 [_2473_] _2473__bF$buf7 d_lut_BUFX4
ABUFX4_112 [_2473_] _2473__bF$buf6 d_lut_BUFX4
ABUFX4_113 [_2473_] _2473__bF$buf5 d_lut_BUFX4
ABUFX4_114 [_2473_] _2473__bF$buf4 d_lut_BUFX4
ABUFX4_115 [_2473_] _2473__bF$buf3 d_lut_BUFX4
ABUFX4_116 [_2473_] _2473__bF$buf2 d_lut_BUFX4
ABUFX4_117 [_2473_] _2473__bF$buf1 d_lut_BUFX4
ABUFX4_118 [_2473_] _2473__bF$buf0 d_lut_BUFX4
ABUFX2_98 [_1373_] _1373__bF$buf3 d_lut_BUFX2
ABUFX2_99 [_1373_] _1373__bF$buf2 d_lut_BUFX2
ABUFX2_100 [_1373_] _1373__bF$buf1 d_lut_BUFX2
ABUFX2_101 [_1373_] _1373__bF$buf0 d_lut_BUFX2
ABUFX2_102 [_1269_] _1269__bF$buf3 d_lut_BUFX2
ABUFX2_103 [_1269_] _1269__bF$buf2 d_lut_BUFX2
ABUFX2_104 [_1269_] _1269__bF$buf1 d_lut_BUFX2
ABUFX2_105 [_1269_] _1269__bF$buf0 d_lut_BUFX2
ABUFX4_119 [concatenador.count_1_] concatenador.count_1_bF$buf6 d_lut_BUFX4
ABUFX4_120 [concatenador.count_1_] concatenador.count_1_bF$buf5 d_lut_BUFX4
ABUFX4_121 [concatenador.count_1_] concatenador.count_1_bF$buf4 d_lut_BUFX4
ABUFX4_122 [concatenador.count_1_] concatenador.count_1_bF$buf3 d_lut_BUFX4
ABUFX4_123 [concatenador.count_1_] concatenador.count_1_bF$buf2 d_lut_BUFX4
ABUFX4_124 [concatenador.count_1_] concatenador.count_1_bF$buf1 d_lut_BUFX4
ABUFX4_125 [concatenador.count_1_] concatenador.count_1_bF$buf0 d_lut_BUFX4
ABUFX2_106 [_1354_] _1354__bF$buf3 d_lut_BUFX2
ABUFX2_107 [_1354_] _1354__bF$buf2 d_lut_BUFX2
ABUFX2_108 [_1354_] _1354__bF$buf1 d_lut_BUFX2
ABUFX2_109 [_1354_] _1354__bF$buf0 d_lut_BUFX2
ABUFX2_110 [_10_] _10__bF$buf6 d_lut_BUFX2
ABUFX2_111 [_10_] _10__bF$buf5 d_lut_BUFX2
ABUFX2_112 [_10_] _10__bF$buf4 d_lut_BUFX2
ABUFX2_113 [_10_] _10__bF$buf3 d_lut_BUFX2
ABUFX2_114 [_10_] _10__bF$buf2 d_lut_BUFX2
ABUFX2_115 [_10_] _10__bF$buf1 d_lut_BUFX2
ABUFX2_116 [_10_] _10__bF$buf0 d_lut_BUFX2
ABUFX2_117 [_1_] _1__bF$buf5 d_lut_BUFX2
ABUFX2_118 [_1_] _1__bF$buf4 d_lut_BUFX2
ABUFX2_119 [_1_] _1__bF$buf3 d_lut_BUFX2
ABUFX2_120 [_1_] _1__bF$buf2 d_lut_BUFX2
ABUFX2_121 [_1_] _1__bF$buf1 d_lut_BUFX2
ABUFX2_122 [_1_] _1__bF$buf0 d_lut_BUFX2
ABUFX4_126 [reset_L] reset_L_bF$buf11 d_lut_BUFX4
ABUFX4_127 [reset_L] reset_L_bF$buf10 d_lut_BUFX4
ABUFX4_128 [reset_L] reset_L_bF$buf9 d_lut_BUFX4
ABUFX4_129 [reset_L] reset_L_bF$buf8 d_lut_BUFX4
ABUFX4_130 [reset_L] reset_L_bF$buf7 d_lut_BUFX4
ABUFX4_131 [reset_L] reset_L_bF$buf6 d_lut_BUFX4
ABUFX4_132 [reset_L] reset_L_bF$buf5 d_lut_BUFX4
ABUFX4_133 [reset_L] reset_L_bF$buf4 d_lut_BUFX4
ABUFX4_134 [reset_L] reset_L_bF$buf3 d_lut_BUFX4
ABUFX4_135 [reset_L] reset_L_bF$buf2 d_lut_BUFX4
ABUFX4_136 [reset_L] reset_L_bF$buf1 d_lut_BUFX4
ABUFX4_137 [reset_L] reset_L_bF$buf0 d_lut_BUFX4
ABUFX2_123 [_558_] _558__bF$buf3 d_lut_BUFX2
ABUFX2_124 [_558_] _558__bF$buf2 d_lut_BUFX2
ABUFX2_125 [_558_] _558__bF$buf1 d_lut_BUFX2
ABUFX2_126 [_558_] _558__bF$buf0 d_lut_BUFX2
ABUFX2_127 [_2609_] _2609__bF$buf3 d_lut_BUFX2
ABUFX2_128 [_2609_] _2609__bF$buf2 d_lut_BUFX2
ABUFX2_129 [_2609_] _2609__bF$buf1 d_lut_BUFX2
ABUFX2_130 [_2609_] _2609__bF$buf0 d_lut_BUFX2
ABUFX2_131 [_1196_] _1196__bF$buf3 d_lut_BUFX2
ABUFX2_132 [_1196_] _1196__bF$buf2 d_lut_BUFX2
ABUFX2_133 [_1196_] _1196__bF$buf1 d_lut_BUFX2
ABUFX2_134 [_1196_] _1196__bF$buf0 d_lut_BUFX2
ABUFX4_138 [concatenador.count_0_] concatenador.count_0_bF$buf11 d_lut_BUFX4
ABUFX4_139 [concatenador.count_0_] concatenador.count_0_bF$buf10 d_lut_BUFX4
ABUFX4_140 [concatenador.count_0_] concatenador.count_0_bF$buf9 d_lut_BUFX4
ABUFX4_141 [concatenador.count_0_] concatenador.count_0_bF$buf8 d_lut_BUFX4
ABUFX4_142 [concatenador.count_0_] concatenador.count_0_bF$buf7 d_lut_BUFX4
ABUFX4_143 [concatenador.count_0_] concatenador.count_0_bF$buf6 d_lut_BUFX4
ABUFX4_144 [concatenador.count_0_] concatenador.count_0_bF$buf5 d_lut_BUFX4
ABUFX4_145 [concatenador.count_0_] concatenador.count_0_bF$buf4 d_lut_BUFX4
ABUFX4_146 [concatenador.count_0_] concatenador.count_0_bF$buf3 d_lut_BUFX4
ABUFX4_147 [concatenador.count_0_] concatenador.count_0_bF$buf2 d_lut_BUFX4
ABUFX4_148 [concatenador.count_0_] concatenador.count_0_bF$buf1 d_lut_BUFX4
ABUFX4_149 [concatenador.count_0_] concatenador.count_0_bF$buf0 d_lut_BUFX4
ABUFX4_150 [_2471_] _2471__bF$buf13 d_lut_BUFX4
ABUFX4_151 [_2471_] _2471__bF$buf12 d_lut_BUFX4
ABUFX4_152 [_2471_] _2471__bF$buf11 d_lut_BUFX4
ABUFX4_153 [_2471_] _2471__bF$buf10 d_lut_BUFX4
ABUFX4_154 [_2471_] _2471__bF$buf9 d_lut_BUFX4
ABUFX4_155 [_2471_] _2471__bF$buf8 d_lut_BUFX4
ABUFX4_156 [_2471_] _2471__bF$buf7 d_lut_BUFX4
ABUFX4_157 [_2471_] _2471__bF$buf6 d_lut_BUFX4
ABUFX4_158 [_2471_] _2471__bF$buf5 d_lut_BUFX4
ABUFX4_159 [_2471_] _2471__bF$buf4 d_lut_BUFX4
ABUFX4_160 [_2471_] _2471__bF$buf3 d_lut_BUFX4
ABUFX4_161 [_2471_] _2471__bF$buf2 d_lut_BUFX4
ABUFX4_162 [_2471_] _2471__bF$buf1 d_lut_BUFX4
ABUFX4_163 [_2471_] _2471__bF$buf0 d_lut_BUFX4
ABUFX2_135 [_0__0_] bounty_out_0_ d_lut_BUFX2
ABUFX2_136 [_0__1_] bounty_out_1_ d_lut_BUFX2
ABUFX2_137 [_0__2_] bounty_out_2_ d_lut_BUFX2
ABUFX2_138 [_0__3_] bounty_out_3_ d_lut_BUFX2
ABUFX2_139 [_0__4_] bounty_out_4_ d_lut_BUFX2
ABUFX2_140 [_0__5_] bounty_out_5_ d_lut_BUFX2
ABUFX2_141 [_0__6_] bounty_out_6_ d_lut_BUFX2
ABUFX2_142 [_0__7_] bounty_out_7_ d_lut_BUFX2
ABUFX2_143 [_0__8_] bounty_out_8_ d_lut_BUFX2
ABUFX2_144 [_0__9_] bounty_out_9_ d_lut_BUFX2
ABUFX2_145 [_0__10_] bounty_out_10_ d_lut_BUFX2
ABUFX2_146 [_0__11_] bounty_out_11_ d_lut_BUFX2
ABUFX2_147 [_0__12_] bounty_out_12_ d_lut_BUFX2
ABUFX2_148 [_0__13_] bounty_out_13_ d_lut_BUFX2
ABUFX2_149 [_0__14_] bounty_out_14_ d_lut_BUFX2
ABUFX2_150 [_0__15_] bounty_out_15_ d_lut_BUFX2
ABUFX2_151 [_0__16_] bounty_out_16_ d_lut_BUFX2
ABUFX2_152 [_0__17_] bounty_out_17_ d_lut_BUFX2
ABUFX2_153 [_0__18_] bounty_out_18_ d_lut_BUFX2
ABUFX2_154 [_0__19_] bounty_out_19_ d_lut_BUFX2
ABUFX2_155 [_0__20_] bounty_out_20_ d_lut_BUFX2
ABUFX2_156 [_0__21_] bounty_out_21_ d_lut_BUFX2
ABUFX2_157 [_0__22_] bounty_out_22_ d_lut_BUFX2
ABUFX2_158 [_0__23_] bounty_out_23_ d_lut_BUFX2
ABUFX2_159 [_1__bF$buf5] fin d_lut_BUFX2
ABUFX2_160 [_2__0_] nonce_0_ d_lut_BUFX2
ABUFX2_161 [_2__1_] nonce_1_ d_lut_BUFX2
ABUFX2_162 [_2__2_] nonce_2_ d_lut_BUFX2
ABUFX2_163 [_2__3_] nonce_3_ d_lut_BUFX2
ABUFX2_164 [_2__4_] nonce_4_ d_lut_BUFX2
ABUFX2_165 [_2__5_] nonce_5_ d_lut_BUFX2
ABUFX2_166 [_2__6_] nonce_6_ d_lut_BUFX2
ABUFX2_167 [_2__7_] nonce_7_ d_lut_BUFX2
ABUFX2_168 [_2__8_] nonce_8_ d_lut_BUFX2
ABUFX2_169 [_2__9_] nonce_9_ d_lut_BUFX2
ABUFX2_170 [_2__10_] nonce_10_ d_lut_BUFX2
ABUFX2_171 [_2__11_] nonce_11_ d_lut_BUFX2
ABUFX2_172 [_2__12_] nonce_12_ d_lut_BUFX2
ABUFX2_173 [_2__13_] nonce_13_ d_lut_BUFX2
ABUFX2_174 [_2__14_] nonce_14_ d_lut_BUFX2
ABUFX2_175 [_2__15_] nonce_15_ d_lut_BUFX2
ABUFX2_176 [_2__16_] nonce_16_ d_lut_BUFX2
ABUFX2_177 [_2__17_] nonce_17_ d_lut_BUFX2
ABUFX2_178 [_2__18_] nonce_18_ d_lut_BUFX2
ABUFX2_179 [_2__19_] nonce_19_ d_lut_BUFX2
ABUFX2_180 [_2__20_] nonce_20_ d_lut_BUFX2
ABUFX2_181 [_2__21_] nonce_21_ d_lut_BUFX2
ABUFX2_182 [_2__22_] nonce_22_ d_lut_BUFX2
ABUFX2_183 [_2__23_] nonce_23_ d_lut_BUFX2
ABUFX2_184 [_2__24_] nonce_24_ d_lut_BUFX2
ABUFX2_185 [_2__25_] nonce_25_ d_lut_BUFX2
ABUFX2_186 [_2__26_] nonce_26_ d_lut_BUFX2
ABUFX2_187 [_2__27_] nonce_27_ d_lut_BUFX2
ABUFX2_188 [_2__28_] nonce_28_ d_lut_BUFX2
ABUFX2_189 [_2__29_] nonce_29_ d_lut_BUFX2
ABUFX2_190 [_2__30_] nonce_30_ d_lut_BUFX2
ABUFX2_191 [_2__31_] nonce_31_ d_lut_BUFX2
ABUFX2_192 [_3__0_] nonce_valido_out_0_ d_lut_BUFX2
ABUFX2_193 [_3__1_] nonce_valido_out_1_ d_lut_BUFX2
ABUFX2_194 [_3__2_] nonce_valido_out_2_ d_lut_BUFX2
ABUFX2_195 [_3__3_] nonce_valido_out_3_ d_lut_BUFX2
ABUFX2_196 [_3__4_] nonce_valido_out_4_ d_lut_BUFX2
ABUFX2_197 [_3__5_] nonce_valido_out_5_ d_lut_BUFX2
ABUFX2_198 [_3__6_] nonce_valido_out_6_ d_lut_BUFX2
ABUFX2_199 [_3__7_] nonce_valido_out_7_ d_lut_BUFX2
ABUFX2_200 [_3__8_] nonce_valido_out_8_ d_lut_BUFX2
ABUFX2_201 [_3__9_] nonce_valido_out_9_ d_lut_BUFX2
ABUFX2_202 [_3__10_] nonce_valido_out_10_ d_lut_BUFX2
ABUFX2_203 [_3__11_] nonce_valido_out_11_ d_lut_BUFX2
ABUFX2_204 [_3__12_] nonce_valido_out_12_ d_lut_BUFX2
ABUFX2_205 [_3__13_] nonce_valido_out_13_ d_lut_BUFX2
ABUFX2_206 [_3__14_] nonce_valido_out_14_ d_lut_BUFX2
ABUFX2_207 [_3__15_] nonce_valido_out_15_ d_lut_BUFX2
ABUFX2_208 [_3__16_] nonce_valido_out_16_ d_lut_BUFX2
ABUFX2_209 [_3__17_] nonce_valido_out_17_ d_lut_BUFX2
ABUFX2_210 [_3__18_] nonce_valido_out_18_ d_lut_BUFX2
ABUFX2_211 [_3__19_] nonce_valido_out_19_ d_lut_BUFX2
ABUFX2_212 [_3__20_] nonce_valido_out_20_ d_lut_BUFX2
ABUFX2_213 [_3__21_] nonce_valido_out_21_ d_lut_BUFX2
ABUFX2_214 [_3__22_] nonce_valido_out_22_ d_lut_BUFX2
ABUFX2_215 [_3__23_] nonce_valido_out_23_ d_lut_BUFX2
ABUFX2_216 [_3__24_] nonce_valido_out_24_ d_lut_BUFX2
ABUFX2_217 [_3__25_] nonce_valido_out_25_ d_lut_BUFX2
ABUFX2_218 [_3__26_] nonce_valido_out_26_ d_lut_BUFX2
ABUFX2_219 [_3__27_] nonce_valido_out_27_ d_lut_BUFX2
ABUFX2_220 [_3__28_] nonce_valido_out_28_ d_lut_BUFX2
ABUFX2_221 [_3__29_] nonce_valido_out_29_ d_lut_BUFX2
ABUFX2_222 [_3__30_] nonce_valido_out_30_ d_lut_BUFX2
ABUFX2_223 [_3__31_] nonce_valido_out_31_ d_lut_BUFX2
ANAND2X1_1 [reset_L_bF$buf11 RAM.rd_ptr_0_] _4__88_ d_lut_NAND2X1
AINVX1_1 [_4__88_] _4__89_ d_lut_INVX1
ANAND2X1_2 [reset_L_bF$buf10 RAM.rd_ptr_1_] _4__92_ d_lut_NAND2X1
AINVX1_2 [_4__92_] _4__77_ d_lut_INVX1
AOR2X2_1 [_4__88_ RAM.rd_ptr_1_] _4__84_ d_lut_OR2X2
ANOR2X1_1 [RAM.rd_ptr_0_ _4__92_] _4__94_ d_lut_NOR2X1
ANAND3X1_1 [reset_L_bF$buf9 RAM.rd_ptr_0_ RAM.rd_ptr_1_] _4__93_ d_lut_NAND3X1
AOAI21X1_1 [RAM.rd_ptr_0_ RAM.rd_ptr_1_ reset_L_bF$buf8] _4__82_ d_lut_OAI21X1
AINVX1_3 [_4__82_] _4__95_ d_lut_INVX1
ANAND2X1_3 [RAM.rd_ptr_0_ RAM.rd_ptr_1_] _5_ d_lut_NAND2X1
AOR2X2_2 [RAM.rd_ptr_0_ RAM.rd_ptr_1_] _6_ d_lut_OR2X2
ANAND3X1_2 [reset_L_bF$buf7 _5_ _6_] _4__86_ d_lut_NAND3X1
AAOI21X1_1 [RAM.rd_ptr_0_ RAM.rd_ptr_1_ _4__82_] _4__46_ d_lut_AOI21X1
AINVX1_4 [_4__93_] _4__71_ d_lut_INVX1
ANOR2X1_2 [RAM.rd_ptr_1_ _4__88_] _4__58_ d_lut_NOR2X1
AOR2X2_3 [_4__92_ RAM.rd_ptr_0_] _4__85_ d_lut_OR2X2
ADFFPOSX1_1 _4__46_ clk_bF$buf76 NULL NULL RAM.entrada_46_ NULL ddflop
ADFFPOSX1_2 _4__58_ clk_bF$buf75 NULL NULL RAM.entrada_58_ NULL ddflop
ADFFPOSX1_3 _4__95_ clk_bF$buf74 NULL NULL RAM.entrada_95_ NULL ddflop
ADFFPOSX1_4 _4__71_ clk_bF$buf73 NULL NULL RAM.entrada_71_ NULL ddflop
ADFFPOSX1_5 _4__77_ clk_bF$buf72 NULL NULL RAM.entrada_77_ NULL ddflop
ADFFPOSX1_6 _4__82_ clk_bF$buf71 NULL NULL RAM.entrada_82_ NULL ddflop
ADFFPOSX1_7 _4__84_ clk_bF$buf70 NULL NULL RAM.entrada_84_ NULL ddflop
ADFFPOSX1_8 _4__85_ clk_bF$buf69 NULL NULL RAM.entrada_85_ NULL ddflop
ADFFPOSX1_9 _4__86_ clk_bF$buf68 NULL NULL RAM.entrada_86_ NULL ddflop
ADFFPOSX1_10 _4__88_ clk_bF$buf67 NULL NULL RAM.entrada_88_ NULL ddflop
ADFFPOSX1_11 _4__89_ clk_bF$buf66 NULL NULL RAM.entrada_89_ NULL ddflop
ADFFPOSX1_12 _4__92_ clk_bF$buf65 NULL NULL RAM.entrada_92_ NULL ddflop
ADFFPOSX1_13 _4__93_ clk_bF$buf64 NULL NULL RAM.entrada_93_ NULL ddflop
ADFFPOSX1_14 _4__94_ clk_bF$buf63 NULL NULL RAM.entrada_94_ NULL ddflop
AINVX8_1 [reset_L_bF$buf6] _10_ d_lut_INVX8
AINVX1_5 [H_17_] _11_ d_lut_INVX1
ANOR2X1_3 [target_1_ _11_] _12_ d_lut_NOR2X1
AINVX1_6 [H_16_] _13_ d_lut_INVX1
ANAND2X1_4 [target_0_ _13_] _14_ d_lut_NAND2X1
ANAND2X1_5 [target_1_ _11_] _15_ d_lut_NAND2X1
AAOI21X1_2 [_14_ _15_ _12_] _16_ d_lut_AOI21X1
AAND2X2_1 [target_3_ H_19_] _17_ d_lut_AND2X2
ANOR2X1_4 [target_3_ H_19_] _18_ d_lut_NOR2X1
ANAND2X1_6 [target_2_ H_18_] _19_ d_lut_NAND2X1
AINVX1_7 [_19_] _20_ d_lut_INVX1
ANOR2X1_5 [target_2_ H_18_] _21_ d_lut_NOR2X1
AOAI22X1_1 [_17_ _18_ _20_ _21_] _22_ d_lut_OAI22X1
AINVX1_8 [H_19_] _23_ d_lut_INVX1
ANOR2X1_6 [target_3_ _23_] _24_ d_lut_NOR2X1
ANAND2X1_7 [target_3_ _23_] _25_ d_lut_NAND2X1
AINVX1_9 [H_18_] _26_ d_lut_INVX1
ANOR2X1_7 [target_2_ _26_] _27_ d_lut_NOR2X1
AAOI21X1_3 [_25_ _27_ _24_] _28_ d_lut_AOI21X1
AOAI21X1_2 [_22_ _16_ _28_] _29_ d_lut_OAI21X1
ANAND2X1_8 [target_7_ H_23_] _30_ d_lut_NAND2X1
AINVX1_10 [_30_] _31_ d_lut_INVX1
ANOR2X1_8 [target_7_ H_23_] _32_ d_lut_NOR2X1
ANAND2X1_9 [target_6_ H_22_] _33_ d_lut_NAND2X1
AINVX1_11 [_33_] _34_ d_lut_INVX1
ANOR2X1_9 [target_6_ H_22_] _35_ d_lut_NOR2X1
AOAI22X1_2 [_31_ _32_ _34_ _35_] _36_ d_lut_OAI22X1
AINVX1_12 [target_5_] _37_ d_lut_INVX1
AINVX1_13 [target_4_] _38_ d_lut_INVX1
AAOI22X1_1 [_37_ H_21_ _38_ H_20_] _39_ d_lut_AOI22X1
AINVX1_14 [H_21_] _40_ d_lut_INVX1
AINVX1_15 [H_20_] _41_ d_lut_INVX1
AAOI22X1_2 [_40_ target_5_ target_4_ _41_] _42_ d_lut_AOI22X1
ANAND2X1_10 [_39_ _42_] _43_ d_lut_NAND2X1
ANOR2X1_10 [_36_ _43_] _44_ d_lut_NOR2X1
AINVX1_16 [target_7_] _45_ d_lut_INVX1
AINVX1_17 [H_23_] _46_ d_lut_INVX1
AINVX1_18 [H_22_] _47_ d_lut_INVX1
AOAI22X1_3 [_46_ target_7_ target_6_ _47_] _48_ d_lut_OAI22X1
AOAI21X1_3 [_45_ H_23_ _48_] _49_ d_lut_OAI21X1
AOAI22X1_4 [_40_ target_5_ target_4_ _41_] _50_ d_lut_OAI22X1
AOAI21X1_4 [_37_ H_21_ _50_] _51_ d_lut_OAI21X1
AOAI21X1_5 [_51_ _36_ _49_] _52_ d_lut_OAI21X1
AAOI21X1_4 [_44_ _29_ _52_] _53_ d_lut_AOI21X1
AINVX1_19 [H_9_] _54_ d_lut_INVX1
ANOR2X1_11 [target_1_ _54_] _55_ d_lut_NOR2X1
AINVX1_20 [H_8_] _56_ d_lut_INVX1
ANAND2X1_11 [target_0_ _56_] _57_ d_lut_NAND2X1
ANAND2X1_12 [target_1_ _54_] _58_ d_lut_NAND2X1
AAOI21X1_5 [_57_ _58_ _55_] _59_ d_lut_AOI21X1
ANAND2X1_13 [target_3_ H_11_] _60_ d_lut_NAND2X1
AINVX1_21 [_60_] _61_ d_lut_INVX1
ANOR2X1_12 [target_3_ H_11_] _62_ d_lut_NOR2X1
ANAND2X1_14 [target_2_ H_10_] _63_ d_lut_NAND2X1
AINVX1_22 [_63_] _64_ d_lut_INVX1
ANOR2X1_13 [target_2_ H_10_] _65_ d_lut_NOR2X1
AOAI22X1_5 [_61_ _62_ _64_ _65_] _66_ d_lut_OAI22X1
AINVX1_23 [H_11_] _67_ d_lut_INVX1
ANOR2X1_14 [target_3_ _67_] _68_ d_lut_NOR2X1
ANAND2X1_15 [target_3_ _67_] _69_ d_lut_NAND2X1
AINVX1_24 [H_10_] _70_ d_lut_INVX1
ANOR2X1_15 [target_2_ _70_] _71_ d_lut_NOR2X1
AAOI21X1_6 [_69_ _71_ _68_] _72_ d_lut_AOI21X1
AOAI21X1_6 [_66_ _59_ _72_] _73_ d_lut_OAI21X1
AINVX1_25 [H_14_] _74_ d_lut_INVX1
ANAND2X1_16 [target_6_ _74_] _75_ d_lut_NAND2X1
AINVX1_26 [H_15_] _76_ d_lut_INVX1
ANAND2X1_17 [target_7_ _76_] _77_ d_lut_NAND2X1
AINVX1_27 [target_6_] _78_ d_lut_INVX1
AAOI22X1_3 [_45_ H_15_ _78_ H_14_] _79_ d_lut_AOI22X1
ANAND3X1_3 [_75_ _77_ _79_] _80_ d_lut_NAND3X1
AAOI22X1_4 [_37_ H_13_ _38_ H_12_] _81_ d_lut_AOI22X1
AINVX1_28 [H_13_] _82_ d_lut_INVX1
AINVX1_29 [H_12_] _83_ d_lut_INVX1
AAOI22X1_5 [_82_ target_5_ target_4_ _83_] _84_ d_lut_AOI22X1
ANAND2X1_18 [_81_ _84_] _85_ d_lut_NAND2X1
ANOR2X1_16 [_85_ _80_] _86_ d_lut_NOR2X1
AOAI22X1_6 [_82_ target_5_ target_4_ _83_] _87_ d_lut_OAI22X1
AOAI21X1_7 [_37_ H_13_ _87_] _88_ d_lut_OAI21X1
AOAI22X1_7 [_76_ target_7_ target_6_ _74_] _89_ d_lut_OAI22X1
AAOI21X1_7 [_77_ _89_ _1__bF$buf4] _90_ d_lut_AOI21X1
AOAI21X1_8 [_80_ _88_ _90_] _91_ d_lut_OAI21X1
AAOI21X1_8 [_73_ _86_ _91_] _92_ d_lut_AOI21X1
ANAND3X1_4 [H_0_ _53__bF$buf6 _92__bF$buf6] _93_ d_lut_NAND3X1
AINVX1_30 [target_1_] _94_ d_lut_INVX1
ANAND2X1_19 [H_17_ _94_] _95_ d_lut_NAND2X1
AINVX1_31 [target_0_] _96_ d_lut_INVX1
AOAI22X1_8 [_94_ H_17_ _96_ H_16_] _97_ d_lut_OAI22X1
ANAND2X1_20 [_95_ _97_] _98_ d_lut_NAND2X1
ANAND2X1_21 [target_3_ H_19_] _99_ d_lut_NAND2X1
AOR2X2_4 [target_3_ H_19_] _100_ d_lut_OR2X2
AINVX1_32 [target_2_] _101_ d_lut_INVX1
ANAND2X1_22 [_101_ _26_] _102_ d_lut_NAND2X1
AAOI22X1_6 [_99_ _100_ _102_ _19_] _103_ d_lut_AOI22X1
AINVX1_33 [target_3_] _104_ d_lut_INVX1
ANAND2X1_23 [H_19_ _104_] _105_ d_lut_NAND2X1
ANOR2X1_17 [H_19_ _104_] _106_ d_lut_NOR2X1
ANAND2X1_24 [H_18_ _101_] _107_ d_lut_NAND2X1
AOAI21X1_9 [_106_ _107_ _105_] _108_ d_lut_OAI21X1
AAOI21X1_9 [_103_ _98_ _108_] _109_ d_lut_AOI21X1
ANAND2X1_25 [_45_ _46_] _110_ d_lut_NAND2X1
ANAND2X1_26 [_78_ _47_] _111_ d_lut_NAND2X1
AAOI22X1_7 [_110_ _30_ _33_ _111_] _112_ d_lut_AOI22X1
ANAND3X1_5 [_39_ _42_ _112_] _113_ d_lut_NAND3X1
ANAND2X1_27 [target_7_ _46_] _114_ d_lut_NAND2X1
AAOI21X1_10 [target_5_ _40_ _39_] _115_ d_lut_AOI21X1
AAOI22X1_8 [_114_ _48_ _115_ _112_] _116_ d_lut_AOI22X1
AOAI21X1_10 [_109_ _113_ _116_] _117_ d_lut_OAI21X1
ANAND2X1_28 [H_9_ _94_] _118_ d_lut_NAND2X1
AOAI22X1_9 [_94_ H_9_ H_8_ _96_] _119_ d_lut_OAI22X1
ANAND2X1_29 [_118_ _119_] _120_ d_lut_NAND2X1
AOR2X2_5 [target_3_ H_11_] _121_ d_lut_OR2X2
ANAND2X1_30 [_101_ _70_] _122_ d_lut_NAND2X1
AAOI22X1_9 [_60_ _121_ _122_ _63_] _123_ d_lut_AOI22X1
ANAND2X1_31 [H_11_ _104_] _124_ d_lut_NAND2X1
ANOR2X1_18 [H_11_ _104_] _125_ d_lut_NOR2X1
ANAND2X1_32 [H_10_ _101_] _126_ d_lut_NAND2X1
AOAI21X1_11 [_125_ _126_ _124_] _127_ d_lut_OAI21X1
AAOI21X1_11 [_123_ _120_ _127_] _128_ d_lut_AOI21X1
ANAND2X1_33 [target_6_ H_14_] _129_ d_lut_NAND2X1
ANAND2X1_34 [_78_ _74_] _130_ d_lut_NAND2X1
ANAND2X1_35 [target_7_ H_15_] _131_ d_lut_NAND2X1
ANAND2X1_36 [_45_ _76_] _132_ d_lut_NAND2X1
AAOI22X1_10 [_130_ _129_ _131_ _132_] _133_ d_lut_AOI22X1
AOAI22X1_10 [_37_ H_13_ _38_ H_12_] _134_ d_lut_OAI22X1
ANOR2X1_19 [_87_ _134_] _135_ d_lut_NOR2X1
ANAND2X1_37 [_133_ _135_] _136_ d_lut_NAND2X1
AAOI21X1_12 [target_5_ _82_ _81_] _137_ d_lut_AOI21X1
AINVX1_34 [_1__bF$buf3] _138_ d_lut_INVX1
ANOR2X1_20 [H_15_ _45_] _139_ d_lut_NOR2X1
AOAI21X1_12 [_79_ _139_ _138_] _140_ d_lut_OAI21X1
AAOI21X1_13 [_133_ _137_ _140_] _141_ d_lut_AOI21X1
AOAI21X1_13 [_128_ _136_ _141_] _142_ d_lut_OAI21X1
AOAI21X1_14 [_117__bF$buf6 _142__bF$buf6 bounty_0_] _143_ d_lut_OAI21X1
AAOI21X1_14 [_93_ _143_ _10__bF$buf6] _7__0_ d_lut_AOI21X1
ANAND3X1_6 [H_1_ _53__bF$buf5 _92__bF$buf5] _144_ d_lut_NAND3X1
AOAI21X1_15 [_117__bF$buf5 _142__bF$buf5 bounty_1_] _145_ d_lut_OAI21X1
AAOI21X1_15 [_144_ _145_ _10__bF$buf5] _7__1_ d_lut_AOI21X1
ANAND3X1_7 [H_2_ _53__bF$buf4 _92__bF$buf4] _146_ d_lut_NAND3X1
AOAI21X1_16 [_117__bF$buf4 _142__bF$buf4 bounty_2_] _147_ d_lut_OAI21X1
AAOI21X1_16 [_146_ _147_ _10__bF$buf4] _7__2_ d_lut_AOI21X1
ANAND3X1_8 [H_3_ _53__bF$buf3 _92__bF$buf3] _148_ d_lut_NAND3X1
AOAI21X1_17 [_117__bF$buf3 _142__bF$buf3 bounty_3_] _149_ d_lut_OAI21X1
AAOI21X1_17 [_148_ _149_ _10__bF$buf3] _7__3_ d_lut_AOI21X1
ANAND3X1_9 [H_4_ _53__bF$buf2 _92__bF$buf2] _150_ d_lut_NAND3X1
AOAI21X1_18 [_117__bF$buf2 _142__bF$buf2 bounty_4_] _151_ d_lut_OAI21X1
AAOI21X1_18 [_150_ _151_ _10__bF$buf2] _7__4_ d_lut_AOI21X1
ANAND3X1_10 [H_5_ _53__bF$buf1 _92__bF$buf1] _152_ d_lut_NAND3X1