*SPICE netlist created from BLIF module hash by blif2BSpice
.include /usr/share/qflow/tech/osu018/osu018_stdcells.sp
.subckt hash vdd gnd target<0> target<1> target<2> target<3> target<4> target<5> target<6> target<7> clk reset_L num_entradas<0> num_entradas<1> bounty_out<0> bounty_out<1> bounty_out<2> bounty_out<3> bounty_out<4> bounty_out<5> bounty_out<6> bounty_out<7> bounty_out<8> bounty_out<9> bounty_out<10> bounty_out<11> bounty_out<12> bounty_out<13> bounty_out<14> bounty_out<15> bounty_out<16> bounty_out<17> bounty_out<18> bounty_out<19> bounty_out<20> bounty_out<21> bounty_out<22> bounty_out<23> nonce_valido_out<0> nonce_valido_out<1> nonce_valido_out<2> nonce_valido_out<3> nonce_valido_out<4> nonce_valido_out<5> nonce_valido_out<6> nonce_valido_out<7> nonce_valido_out<8> nonce_valido_out<9> nonce_valido_out<10> nonce_valido_out<11> nonce_valido_out<12> nonce_valido_out<13> nonce_valido_out<14> nonce_valido_out<15> nonce_valido_out<16> nonce_valido_out<17> nonce_valido_out<18> nonce_valido_out<19> nonce_valido_out<20> nonce_valido_out<21> nonce_valido_out<22> nonce_valido_out<23> nonce_valido_out<24> nonce_valido_out<25> nonce_valido_out<26> nonce_valido_out<27> nonce_valido_out<28> nonce_valido_out<29> nonce_valido_out<30> nonce_valido_out<31> nonce<0> nonce<1> nonce<2> nonce<3> nonce<4> nonce<5> nonce<6> nonce<7> nonce<8> nonce<9> nonce<10> nonce<11> nonce<12> nonce<13> nonce<14> nonce<15> nonce<16> nonce<17> nonce<18> nonce<19> nonce<20> nonce<21> nonce<22> nonce<23> nonce<24> nonce<25> nonce<26> nonce<27> nonce<28> nonce<29> nonce<30> nonce<31> fin 
XBUFX4_1 vdd gnd clk clk_hier0_bF$buf9 BUFX4
XBUFX4_2 vdd gnd clk clk_hier0_bF$buf8 BUFX4
XBUFX4_3 vdd gnd clk clk_hier0_bF$buf7 BUFX4
XBUFX4_4 vdd gnd clk clk_hier0_bF$buf6 BUFX4
XBUFX4_5 vdd gnd clk clk_hier0_bF$buf5 BUFX4
XBUFX4_6 vdd gnd clk clk_hier0_bF$buf4 BUFX4
XBUFX4_7 vdd gnd clk clk_hier0_bF$buf3 BUFX4
XBUFX4_8 vdd gnd clk clk_hier0_bF$buf2 BUFX4
XBUFX4_9 vdd gnd clk clk_hier0_bF$buf1 BUFX4
XBUFX4_10 vdd gnd clk clk_hier0_bF$buf0 BUFX4
XBUFX2_1 vdd gnd reset_L reset_L_hier0_bF$buf6 BUFX2
XBUFX2_2 vdd gnd reset_L reset_L_hier0_bF$buf5 BUFX2
XBUFX2_3 vdd gnd reset_L reset_L_hier0_bF$buf4 BUFX2
XBUFX2_4 vdd gnd reset_L reset_L_hier0_bF$buf3 BUFX2
XBUFX2_5 vdd gnd reset_L reset_L_hier0_bF$buf2 BUFX2
XBUFX2_6 vdd gnd reset_L reset_L_hier0_bF$buf1 BUFX2
XBUFX2_7 vdd gnd reset_L reset_L_hier0_bF$buf0 BUFX2
XBUFX4_11 vdd gnd _92_ _92__bF$buf6 BUFX4
XBUFX2_8 vdd gnd _92_ _92__bF$buf5 BUFX2
XBUFX2_9 vdd gnd _92_ _92__bF$buf4 BUFX2
XBUFX2_10 vdd gnd _92_ _92__bF$buf3 BUFX2
XBUFX2_11 vdd gnd _92_ _92__bF$buf2 BUFX2
XBUFX2_12 vdd gnd _92_ _92__bF$buf1 BUFX2
XBUFX2_13 vdd gnd _92_ _92__bF$buf0 BUFX2
XBUFX2_14 vdd gnd _1630_ _1630__bF$buf4 BUFX2
XBUFX2_15 vdd gnd _1630_ _1630__bF$buf3 BUFX2
XBUFX2_16 vdd gnd _1630_ _1630__bF$buf2 BUFX2
XBUFX2_17 vdd gnd _1630_ _1630__bF$buf1 BUFX2
XBUFX2_18 vdd gnd _1630_ _1630__bF$buf0 BUFX2
XBUFX4_12 vdd gnd clk_hier0_bF$buf9 clk_bF$buf113 BUFX4
XBUFX4_13 vdd gnd clk_hier0_bF$buf8 clk_bF$buf112 BUFX4
XBUFX4_14 vdd gnd clk_hier0_bF$buf7 clk_bF$buf111 BUFX4
XBUFX4_15 vdd gnd clk_hier0_bF$buf6 clk_bF$buf110 BUFX4
XBUFX4_16 vdd gnd clk_hier0_bF$buf5 clk_bF$buf109 BUFX4
XBUFX4_17 vdd gnd clk_hier0_bF$buf4 clk_bF$buf108 BUFX4
XBUFX4_18 vdd gnd clk_hier0_bF$buf3 clk_bF$buf107 BUFX4
XBUFX4_19 vdd gnd clk_hier0_bF$buf2 clk_bF$buf106 BUFX4
XBUFX4_20 vdd gnd clk_hier0_bF$buf1 clk_bF$buf105 BUFX4
XBUFX4_21 vdd gnd clk_hier0_bF$buf0 clk_bF$buf104 BUFX4
XBUFX4_22 vdd gnd clk_hier0_bF$buf9 clk_bF$buf103 BUFX4
XBUFX4_23 vdd gnd clk_hier0_bF$buf8 clk_bF$buf102 BUFX4
XBUFX4_24 vdd gnd clk_hier0_bF$buf7 clk_bF$buf101 BUFX4
XBUFX4_25 vdd gnd clk_hier0_bF$buf6 clk_bF$buf100 BUFX4
XBUFX4_26 vdd gnd clk_hier0_bF$buf5 clk_bF$buf99 BUFX4
XBUFX4_27 vdd gnd clk_hier0_bF$buf4 clk_bF$buf98 BUFX4
XBUFX4_28 vdd gnd clk_hier0_bF$buf3 clk_bF$buf97 BUFX4
XBUFX4_29 vdd gnd clk_hier0_bF$buf2 clk_bF$buf96 BUFX4
XBUFX4_30 vdd gnd clk_hier0_bF$buf1 clk_bF$buf95 BUFX4
XBUFX4_31 vdd gnd clk_hier0_bF$buf0 clk_bF$buf94 BUFX4
XBUFX4_32 vdd gnd clk_hier0_bF$buf9 clk_bF$buf93 BUFX4
XBUFX4_33 vdd gnd clk_hier0_bF$buf8 clk_bF$buf92 BUFX4
XBUFX4_34 vdd gnd clk_hier0_bF$buf7 clk_bF$buf91 BUFX4
XBUFX4_35 vdd gnd clk_hier0_bF$buf6 clk_bF$buf90 BUFX4
XBUFX4_36 vdd gnd clk_hier0_bF$buf5 clk_bF$buf89 BUFX4
XBUFX4_37 vdd gnd clk_hier0_bF$buf4 clk_bF$buf88 BUFX4
XBUFX4_38 vdd gnd clk_hier0_bF$buf3 clk_bF$buf87 BUFX4
XBUFX4_39 vdd gnd clk_hier0_bF$buf2 clk_bF$buf86 BUFX4
XBUFX4_40 vdd gnd clk_hier0_bF$buf1 clk_bF$buf85 BUFX4
XBUFX4_41 vdd gnd clk_hier0_bF$buf0 clk_bF$buf84 BUFX4
XBUFX4_42 vdd gnd clk_hier0_bF$buf9 clk_bF$buf83 BUFX4
XBUFX4_43 vdd gnd clk_hier0_bF$buf8 clk_bF$buf82 BUFX4
XBUFX4_44 vdd gnd clk_hier0_bF$buf7 clk_bF$buf81 BUFX4
XBUFX4_45 vdd gnd clk_hier0_bF$buf6 clk_bF$buf80 BUFX4
XBUFX4_46 vdd gnd clk_hier0_bF$buf5 clk_bF$buf79 BUFX4
XBUFX4_47 vdd gnd clk_hier0_bF$buf4 clk_bF$buf78 BUFX4
XBUFX4_48 vdd gnd clk_hier0_bF$buf3 clk_bF$buf77 BUFX4
XBUFX4_49 vdd gnd clk_hier0_bF$buf2 clk_bF$buf76 BUFX4
XBUFX4_50 vdd gnd clk_hier0_bF$buf1 clk_bF$buf75 BUFX4
XBUFX4_51 vdd gnd clk_hier0_bF$buf0 clk_bF$buf74 BUFX4
XBUFX4_52 vdd gnd clk_hier0_bF$buf9 clk_bF$buf73 BUFX4
XBUFX4_53 vdd gnd clk_hier0_bF$buf8 clk_bF$buf72 BUFX4
XBUFX4_54 vdd gnd clk_hier0_bF$buf7 clk_bF$buf71 BUFX4
XBUFX4_55 vdd gnd clk_hier0_bF$buf6 clk_bF$buf70 BUFX4
XBUFX4_56 vdd gnd clk_hier0_bF$buf5 clk_bF$buf69 BUFX4
XBUFX4_57 vdd gnd clk_hier0_bF$buf4 clk_bF$buf68 BUFX4
XBUFX4_58 vdd gnd clk_hier0_bF$buf3 clk_bF$buf67 BUFX4
XBUFX4_59 vdd gnd clk_hier0_bF$buf2 clk_bF$buf66 BUFX4
XBUFX4_60 vdd gnd clk_hier0_bF$buf1 clk_bF$buf65 BUFX4
XBUFX4_61 vdd gnd clk_hier0_bF$buf0 clk_bF$buf64 BUFX4
XBUFX4_62 vdd gnd clk_hier0_bF$buf9 clk_bF$buf63 BUFX4
XBUFX4_63 vdd gnd clk_hier0_bF$buf8 clk_bF$buf62 BUFX4
XBUFX4_64 vdd gnd clk_hier0_bF$buf7 clk_bF$buf61 BUFX4
XBUFX4_65 vdd gnd clk_hier0_bF$buf6 clk_bF$buf60 BUFX4
XBUFX4_66 vdd gnd clk_hier0_bF$buf5 clk_bF$buf59 BUFX4
XBUFX4_67 vdd gnd clk_hier0_bF$buf4 clk_bF$buf58 BUFX4
XBUFX4_68 vdd gnd clk_hier0_bF$buf3 clk_bF$buf57 BUFX4
XBUFX4_69 vdd gnd clk_hier0_bF$buf2 clk_bF$buf56 BUFX4
XBUFX4_70 vdd gnd clk_hier0_bF$buf1 clk_bF$buf55 BUFX4
XBUFX4_71 vdd gnd clk_hier0_bF$buf0 clk_bF$buf54 BUFX4
XBUFX4_72 vdd gnd clk_hier0_bF$buf9 clk_bF$buf53 BUFX4
XBUFX4_73 vdd gnd clk_hier0_bF$buf8 clk_bF$buf52 BUFX4
XBUFX4_74 vdd gnd clk_hier0_bF$buf7 clk_bF$buf51 BUFX4
XBUFX4_75 vdd gnd clk_hier0_bF$buf6 clk_bF$buf50 BUFX4
XBUFX4_76 vdd gnd clk_hier0_bF$buf5 clk_bF$buf49 BUFX4
XBUFX4_77 vdd gnd clk_hier0_bF$buf4 clk_bF$buf48 BUFX4
XBUFX4_78 vdd gnd clk_hier0_bF$buf3 clk_bF$buf47 BUFX4
XBUFX4_79 vdd gnd clk_hier0_bF$buf2 clk_bF$buf46 BUFX4
XBUFX4_80 vdd gnd clk_hier0_bF$buf1 clk_bF$buf45 BUFX4
XBUFX4_81 vdd gnd clk_hier0_bF$buf0 clk_bF$buf44 BUFX4
XBUFX4_82 vdd gnd clk_hier0_bF$buf9 clk_bF$buf43 BUFX4
XBUFX4_83 vdd gnd clk_hier0_bF$buf8 clk_bF$buf42 BUFX4
XBUFX4_84 vdd gnd clk_hier0_bF$buf7 clk_bF$buf41 BUFX4
XBUFX4_85 vdd gnd clk_hier0_bF$buf6 clk_bF$buf40 BUFX4
XBUFX4_86 vdd gnd clk_hier0_bF$buf5 clk_bF$buf39 BUFX4
XBUFX4_87 vdd gnd clk_hier0_bF$buf4 clk_bF$buf38 BUFX4
XBUFX4_88 vdd gnd clk_hier0_bF$buf3 clk_bF$buf37 BUFX4
XBUFX4_89 vdd gnd clk_hier0_bF$buf2 clk_bF$buf36 BUFX4
XBUFX4_90 vdd gnd clk_hier0_bF$buf1 clk_bF$buf35 BUFX4
XBUFX4_91 vdd gnd clk_hier0_bF$buf0 clk_bF$buf34 BUFX4
XBUFX4_92 vdd gnd clk_hier0_bF$buf9 clk_bF$buf33 BUFX4
XBUFX4_93 vdd gnd clk_hier0_bF$buf8 clk_bF$buf32 BUFX4
XBUFX4_94 vdd gnd clk_hier0_bF$buf7 clk_bF$buf31 BUFX4
XBUFX4_95 vdd gnd clk_hier0_bF$buf6 clk_bF$buf30 BUFX4
XBUFX4_96 vdd gnd clk_hier0_bF$buf5 clk_bF$buf29 BUFX4
XBUFX4_97 vdd gnd clk_hier0_bF$buf4 clk_bF$buf28 BUFX4
XBUFX4_98 vdd gnd clk_hier0_bF$buf3 clk_bF$buf27 BUFX4
XBUFX4_99 vdd gnd clk_hier0_bF$buf2 clk_bF$buf26 BUFX4
XBUFX4_100 vdd gnd clk_hier0_bF$buf1 clk_bF$buf25 BUFX4
XBUFX4_101 vdd gnd clk_hier0_bF$buf0 clk_bF$buf24 BUFX4
XBUFX4_102 vdd gnd clk_hier0_bF$buf9 clk_bF$buf23 BUFX4
XBUFX4_103 vdd gnd clk_hier0_bF$buf8 clk_bF$buf22 BUFX4
XBUFX4_104 vdd gnd clk_hier0_bF$buf7 clk_bF$buf21 BUFX4
XBUFX4_105 vdd gnd clk_hier0_bF$buf6 clk_bF$buf20 BUFX4
XBUFX4_106 vdd gnd clk_hier0_bF$buf5 clk_bF$buf19 BUFX4
XBUFX4_107 vdd gnd clk_hier0_bF$buf4 clk_bF$buf18 BUFX4
XBUFX4_108 vdd gnd clk_hier0_bF$buf3 clk_bF$buf17 BUFX4
XBUFX4_109 vdd gnd clk_hier0_bF$buf2 clk_bF$buf16 BUFX4
XBUFX4_110 vdd gnd clk_hier0_bF$buf1 clk_bF$buf15 BUFX4
XBUFX4_111 vdd gnd clk_hier0_bF$buf0 clk_bF$buf14 BUFX4
XBUFX4_112 vdd gnd clk_hier0_bF$buf9 clk_bF$buf13 BUFX4
XBUFX4_113 vdd gnd clk_hier0_bF$buf8 clk_bF$buf12 BUFX4
XBUFX4_114 vdd gnd clk_hier0_bF$buf7 clk_bF$buf11 BUFX4
XBUFX4_115 vdd gnd clk_hier0_bF$buf6 clk_bF$buf10 BUFX4
XBUFX4_116 vdd gnd clk_hier0_bF$buf5 clk_bF$buf9 BUFX4
XBUFX4_117 vdd gnd clk_hier0_bF$buf4 clk_bF$buf8 BUFX4
XBUFX4_118 vdd gnd clk_hier0_bF$buf3 clk_bF$buf7 BUFX4
XBUFX4_119 vdd gnd clk_hier0_bF$buf2 clk_bF$buf6 BUFX4
XBUFX4_120 vdd gnd clk_hier0_bF$buf1 clk_bF$buf5 BUFX4
XBUFX4_121 vdd gnd clk_hier0_bF$buf0 clk_bF$buf4 BUFX4
XBUFX4_122 vdd gnd clk_hier0_bF$buf9 clk_bF$buf3 BUFX4
XBUFX4_123 vdd gnd clk_hier0_bF$buf8 clk_bF$buf2 BUFX4
XBUFX4_124 vdd gnd clk_hier0_bF$buf7 clk_bF$buf1 BUFX4
XBUFX4_125 vdd gnd clk_hier0_bF$buf6 clk_bF$buf0 BUFX4
XBUFX2_19 vdd gnd _117_ _117__bF$buf6 BUFX2
XBUFX2_20 vdd gnd _117_ _117__bF$buf5 BUFX2
XBUFX2_21 vdd gnd _117_ _117__bF$buf4 BUFX2
XBUFX2_22 vdd gnd _117_ _117__bF$buf3 BUFX2
XBUFX2_23 vdd gnd _117_ _117__bF$buf2 BUFX2
XBUFX2_24 vdd gnd _117_ _117__bF$buf1 BUFX2
XBUFX2_25 vdd gnd _117_ _117__bF$buf0 BUFX2
XBUFX2_26 vdd gnd _3022_ _3022__bF$buf5 BUFX2
XBUFX2_27 vdd gnd _3022_ _3022__bF$buf4 BUFX2
XBUFX2_28 vdd gnd _3022_ _3022__bF$buf3 BUFX2
XBUFX2_29 vdd gnd _3022_ _3022__bF$buf2 BUFX2
XBUFX2_30 vdd gnd _3022_ _3022__bF$buf1 BUFX2
XBUFX2_31 vdd gnd _3022_ _3022__bF$buf0 BUFX2
XBUFX4_126 vdd gnd _142_ _142__bF$buf6 BUFX4
XBUFX4_127 vdd gnd _142_ _142__bF$buf5 BUFX4
XBUFX4_128 vdd gnd _142_ _142__bF$buf4 BUFX4
XBUFX4_129 vdd gnd _142_ _142__bF$buf3 BUFX4
XBUFX4_130 vdd gnd _142_ _142__bF$buf2 BUFX4
XBUFX4_131 vdd gnd _142_ _142__bF$buf1 BUFX4
XBUFX4_132 vdd gnd _142_ _142__bF$buf0 BUFX4
XBUFX4_133 vdd gnd concatenador.counter<0> concatenador.counter_0_bF$buf13 BUFX4
XBUFX4_134 vdd gnd concatenador.counter<0> concatenador.counter_0_bF$buf12 BUFX4
XBUFX4_135 vdd gnd concatenador.counter<0> concatenador.counter_0_bF$buf11 BUFX4
XBUFX4_136 vdd gnd concatenador.counter<0> concatenador.counter_0_bF$buf10 BUFX4
XBUFX4_137 vdd gnd concatenador.counter<0> concatenador.counter_0_bF$buf9 BUFX4
XBUFX4_138 vdd gnd concatenador.counter<0> concatenador.counter_0_bF$buf8 BUFX4
XBUFX4_139 vdd gnd concatenador.counter<0> concatenador.counter_0_bF$buf7 BUFX4
XBUFX4_140 vdd gnd concatenador.counter<0> concatenador.counter_0_bF$buf6 BUFX4
XBUFX4_141 vdd gnd concatenador.counter<0> concatenador.counter_0_bF$buf5 BUFX4
XBUFX4_142 vdd gnd concatenador.counter<0> concatenador.counter_0_bF$buf4 BUFX4
XBUFX4_143 vdd gnd concatenador.counter<0> concatenador.counter_0_bF$buf3 BUFX4
XBUFX4_144 vdd gnd concatenador.counter<0> concatenador.counter_0_bF$buf2 BUFX4
XBUFX4_145 vdd gnd concatenador.counter<0> concatenador.counter_0_bF$buf1 BUFX4
XBUFX4_146 vdd gnd concatenador.counter<0> concatenador.counter_0_bF$buf0 BUFX4
XBUFX2_32 vdd gnd _3316_ _3316__bF$buf3 BUFX2
XBUFX2_33 vdd gnd _3316_ _3316__bF$buf2 BUFX2
XBUFX2_34 vdd gnd _3316_ _3316__bF$buf1 BUFX2
XBUFX2_35 vdd gnd _3316_ _3316__bF$buf0 BUFX2
XBUFX2_36 vdd gnd _3443_ _3443__bF$buf5 BUFX2
XBUFX2_37 vdd gnd _3443_ _3443__bF$buf4 BUFX2
XBUFX2_38 vdd gnd _3443_ _3443__bF$buf3 BUFX2
XBUFX2_39 vdd gnd _3443_ _3443__bF$buf2 BUFX2
XBUFX2_40 vdd gnd _3443_ _3443__bF$buf1 BUFX2
XBUFX2_41 vdd gnd _3443_ _3443__bF$buf0 BUFX2
XBUFX2_42 vdd gnd _5004_ _5004__bF$buf6 BUFX2
XBUFX2_43 vdd gnd _5004_ _5004__bF$buf5 BUFX2
XBUFX2_44 vdd gnd _5004_ _5004__bF$buf4 BUFX2
XBUFX2_45 vdd gnd _5004_ _5004__bF$buf3 BUFX2
XBUFX2_46 vdd gnd _5004_ _5004__bF$buf2 BUFX2
XBUFX2_47 vdd gnd _5004_ _5004__bF$buf1 BUFX2
XBUFX2_48 vdd gnd _5004_ _5004__bF$buf0 BUFX2
XBUFX4_147 vdd gnd _4735_ _4735__bF$buf15 BUFX4
XBUFX4_148 vdd gnd _4735_ _4735__bF$buf14 BUFX4
XBUFX4_149 vdd gnd _4735_ _4735__bF$buf13 BUFX4
XBUFX4_150 vdd gnd _4735_ _4735__bF$buf12 BUFX4
XBUFX4_151 vdd gnd _4735_ _4735__bF$buf11 BUFX4
XBUFX4_152 vdd gnd _4735_ _4735__bF$buf10 BUFX4
XBUFX4_153 vdd gnd _4735_ _4735__bF$buf9 BUFX4
XBUFX4_154 vdd gnd _4735_ _4735__bF$buf8 BUFX4
XBUFX4_155 vdd gnd _4735_ _4735__bF$buf7 BUFX4
XBUFX4_156 vdd gnd _4735_ _4735__bF$buf6 BUFX4
XBUFX4_157 vdd gnd _4735_ _4735__bF$buf5 BUFX4
XBUFX4_158 vdd gnd _4735_ _4735__bF$buf4 BUFX4
XBUFX4_159 vdd gnd _4735_ _4735__bF$buf3 BUFX4
XBUFX4_160 vdd gnd _4735_ _4735__bF$buf2 BUFX4
XBUFX4_161 vdd gnd _4735_ _4735__bF$buf1 BUFX4
XBUFX4_162 vdd gnd _4735_ _4735__bF$buf0 BUFX4
XBUFX2_49 vdd gnd _4832_ _4832__bF$buf5 BUFX2
XBUFX2_50 vdd gnd _4832_ _4832__bF$buf4 BUFX2
XBUFX2_51 vdd gnd _4832_ _4832__bF$buf3 BUFX2
XBUFX2_52 vdd gnd _4832_ _4832__bF$buf2 BUFX2
XBUFX2_53 vdd gnd _4832_ _4832__bF$buf1 BUFX2
XBUFX2_54 vdd gnd _4832_ _4832__bF$buf0 BUFX2
XBUFX4_163 vdd gnd mux1.sel mux1.sel_bF$buf4 BUFX4
XBUFX2_55 vdd gnd mux1.sel mux1.sel_bF$buf3 BUFX2
XBUFX2_56 vdd gnd mux1.sel mux1.sel_bF$buf2 BUFX2
XBUFX2_57 vdd gnd mux1.sel mux1.sel_bF$buf1 BUFX2
XBUFX2_58 vdd gnd mux1.sel mux1.sel_bF$buf0 BUFX2
XBUFX2_59 vdd gnd RAM.entrada<71> RAM.entrada_71_bF$buf3 BUFX2
XBUFX2_60 vdd gnd RAM.entrada<71> RAM.entrada_71_bF$buf2 BUFX2
XBUFX2_61 vdd gnd RAM.entrada<71> RAM.entrada_71_bF$buf1 BUFX2
XBUFX2_62 vdd gnd RAM.entrada<71> RAM.entrada_71_bF$buf0 BUFX2
XBUFX2_63 vdd gnd _3489_ _3489__bF$buf3 BUFX2
XBUFX2_64 vdd gnd _3489_ _3489__bF$buf2 BUFX2
XBUFX2_65 vdd gnd _3489_ _3489__bF$buf1 BUFX2
XBUFX2_66 vdd gnd _3489_ _3489__bF$buf0 BUFX2
XBUFX2_67 vdd gnd _3424_ _3424__bF$buf3 BUFX2
XBUFX2_68 vdd gnd _3424_ _3424__bF$buf2 BUFX2
XBUFX2_69 vdd gnd _3424_ _3424__bF$buf1 BUFX2
XBUFX2_70 vdd gnd _3424_ _3424__bF$buf0 BUFX2
XBUFX2_71 vdd gnd _868_ _868__bF$buf3 BUFX2
XBUFX2_72 vdd gnd _868_ _868__bF$buf2 BUFX2
XBUFX2_73 vdd gnd _868_ _868__bF$buf1 BUFX2
XBUFX2_74 vdd gnd _868_ _868__bF$buf0 BUFX2
XBUFX2_75 vdd gnd _3442_ _3442__bF$buf4 BUFX2
XBUFX2_76 vdd gnd _3442_ _3442__bF$buf3 BUFX2
XBUFX2_77 vdd gnd _3442_ _3442__bF$buf2 BUFX2
XBUFX2_78 vdd gnd _3442_ _3442__bF$buf1 BUFX2
XBUFX2_79 vdd gnd _3442_ _3442__bF$buf0 BUFX2
XBUFX2_80 vdd gnd _4269_ _4269__bF$buf6 BUFX2
XBUFX2_81 vdd gnd _4269_ _4269__bF$buf5 BUFX2
XBUFX2_82 vdd gnd _4269_ _4269__bF$buf4 BUFX2
XBUFX2_83 vdd gnd _4269_ _4269__bF$buf3 BUFX2
XBUFX2_84 vdd gnd _4269_ _4269__bF$buf2 BUFX2
XBUFX2_85 vdd gnd _4269_ _4269__bF$buf1 BUFX2
XBUFX2_86 vdd gnd _4269_ _4269__bF$buf0 BUFX2
XBUFX2_87 vdd gnd _3333_ _3333__bF$buf3 BUFX2
XBUFX2_88 vdd gnd _3333_ _3333__bF$buf2 BUFX2
XBUFX2_89 vdd gnd _3333_ _3333__bF$buf1 BUFX2
XBUFX2_90 vdd gnd _3333_ _3333__bF$buf0 BUFX2
XBUFX2_91 vdd gnd _1506_ _1506__bF$buf3 BUFX2
XBUFX2_92 vdd gnd _1506_ _1506__bF$buf2 BUFX2
XBUFX2_93 vdd gnd _1506_ _1506__bF$buf1 BUFX2
XBUFX2_94 vdd gnd _1506_ _1506__bF$buf0 BUFX2
XBUFX4_164 vdd gnd _550_ _550__bF$buf15 BUFX4
XBUFX4_165 vdd gnd _550_ _550__bF$buf14 BUFX4
XBUFX4_166 vdd gnd _550_ _550__bF$buf13 BUFX4
XBUFX4_167 vdd gnd _550_ _550__bF$buf12 BUFX4
XBUFX4_168 vdd gnd _550_ _550__bF$buf11 BUFX4
XBUFX4_169 vdd gnd _550_ _550__bF$buf10 BUFX4
XBUFX4_170 vdd gnd _550_ _550__bF$buf9 BUFX4
XBUFX4_171 vdd gnd _550_ _550__bF$buf8 BUFX4
XBUFX4_172 vdd gnd _550_ _550__bF$buf7 BUFX4
XBUFX4_173 vdd gnd _550_ _550__bF$buf6 BUFX4
XBUFX4_174 vdd gnd _550_ _550__bF$buf5 BUFX4
XBUFX4_175 vdd gnd _550_ _550__bF$buf4 BUFX4
XBUFX4_176 vdd gnd _550_ _550__bF$buf3 BUFX4
XBUFX4_177 vdd gnd _550_ _550__bF$buf2 BUFX4
XBUFX4_178 vdd gnd _550_ _550__bF$buf1 BUFX4
XBUFX4_179 vdd gnd _550_ _550__bF$buf0 BUFX4
XBUFX2_95 vdd gnd _1633_ _1633__bF$buf5 BUFX2
XBUFX2_96 vdd gnd _1633_ _1633__bF$buf4 BUFX2
XBUFX2_97 vdd gnd _1633_ _1633__bF$buf3 BUFX2
XBUFX2_98 vdd gnd _1633_ _1633__bF$buf2 BUFX2
XBUFX2_99 vdd gnd _1633_ _1633__bF$buf1 BUFX2
XBUFX2_100 vdd gnd _1633_ _1633__bF$buf0 BUFX2
XBUFX2_101 vdd gnd _53_ _53__bF$buf6 BUFX2
XBUFX2_102 vdd gnd _53_ _53__bF$buf5 BUFX2
XBUFX2_103 vdd gnd _53_ _53__bF$buf4 BUFX2
XBUFX2_104 vdd gnd _53_ _53__bF$buf3 BUFX2
XBUFX2_105 vdd gnd _53_ _53__bF$buf2 BUFX2
XBUFX2_106 vdd gnd _53_ _53__bF$buf1 BUFX2
XBUFX2_107 vdd gnd _53_ _53__bF$buf0 BUFX2
XBUFX2_108 vdd gnd concatenador.counter_2d<1> concatenador.counter_2d_1_bF$buf6 BUFX2
XBUFX2_109 vdd gnd concatenador.counter_2d<1> concatenador.counter_2d_1_bF$buf5 BUFX2
XBUFX4_180 vdd gnd concatenador.counter_2d<1> concatenador.counter_2d_1_bF$buf4 BUFX4
XBUFX2_110 vdd gnd concatenador.counter_2d<1> concatenador.counter_2d_1_bF$buf3 BUFX2
XBUFX2_111 vdd gnd concatenador.counter_2d<1> concatenador.counter_2d_1_bF$buf2 BUFX2
XBUFX2_112 vdd gnd concatenador.counter_2d<1> concatenador.counter_2d_1_bF$buf1 BUFX2
XBUFX2_113 vdd gnd concatenador.counter_2d<1> concatenador.counter_2d_1_bF$buf0 BUFX2
XBUFX2_114 vdd gnd comparador.valid comparador.valid_bF$buf5 BUFX2
XBUFX2_115 vdd gnd comparador.valid comparador.valid_bF$buf4 BUFX2
XBUFX2_116 vdd gnd comparador.valid comparador.valid_bF$buf3 BUFX2
XBUFX2_117 vdd gnd comparador.valid comparador.valid_bF$buf2 BUFX2
XBUFX4_181 vdd gnd comparador.valid comparador.valid_bF$buf1 BUFX4
XBUFX2_118 vdd gnd comparador.valid comparador.valid_bF$buf0 BUFX2
XBUFX2_119 vdd gnd _3453_ _3453__bF$buf3 BUFX2
XBUFX2_120 vdd gnd _3453_ _3453__bF$buf2 BUFX2
XBUFX2_121 vdd gnd _3453_ _3453__bF$buf1 BUFX2
XBUFX2_122 vdd gnd _3453_ _3453__bF$buf0 BUFX2
XBUFX4_182 vdd gnd _2925_ _2925__bF$buf15 BUFX4
XBUFX4_183 vdd gnd _2925_ _2925__bF$buf14 BUFX4
XBUFX4_184 vdd gnd _2925_ _2925__bF$buf13 BUFX4
XBUFX4_185 vdd gnd _2925_ _2925__bF$buf12 BUFX4
XBUFX4_186 vdd gnd _2925_ _2925__bF$buf11 BUFX4
XBUFX4_187 vdd gnd _2925_ _2925__bF$buf10 BUFX4
XBUFX4_188 vdd gnd _2925_ _2925__bF$buf9 BUFX4
XBUFX4_189 vdd gnd _2925_ _2925__bF$buf8 BUFX4
XBUFX4_190 vdd gnd _2925_ _2925__bF$buf7 BUFX4
XBUFX4_191 vdd gnd _2925_ _2925__bF$buf6 BUFX4
XBUFX4_192 vdd gnd _2925_ _2925__bF$buf5 BUFX4
XBUFX4_193 vdd gnd _2925_ _2925__bF$buf4 BUFX4
XBUFX4_194 vdd gnd _2925_ _2925__bF$buf3 BUFX4
XBUFX4_195 vdd gnd _2925_ _2925__bF$buf2 BUFX4
XBUFX4_196 vdd gnd _2925_ _2925__bF$buf1 BUFX4
XBUFX4_197 vdd gnd _2925_ _2925__bF$buf0 BUFX4
XBUFX2_123 vdd gnd _4919_ _4919__bF$buf4 BUFX2
XBUFX2_124 vdd gnd _4919_ _4919__bF$buf3 BUFX2
XBUFX2_125 vdd gnd _4919_ _4919__bF$buf2 BUFX2
XBUFX2_126 vdd gnd _4919_ _4919__bF$buf1 BUFX2
XBUFX2_127 vdd gnd _4919_ _4919__bF$buf0 BUFX2
XBUFX2_128 vdd gnd _1679_ _1679__bF$buf3 BUFX2
XBUFX2_129 vdd gnd _1679_ _1679__bF$buf2 BUFX2
XBUFX2_130 vdd gnd _1679_ _1679__bF$buf1 BUFX2
XBUFX2_131 vdd gnd _1679_ _1679__bF$buf0 BUFX2
XBUFX4_198 vdd gnd _4740_ _4740__bF$buf13 BUFX4
XBUFX4_199 vdd gnd _4740_ _4740__bF$buf12 BUFX4
XBUFX4_200 vdd gnd _4740_ _4740__bF$buf11 BUFX4
XBUFX4_201 vdd gnd _4740_ _4740__bF$buf10 BUFX4
XBUFX4_202 vdd gnd _4740_ _4740__bF$buf9 BUFX4
XBUFX4_203 vdd gnd _4740_ _4740__bF$buf8 BUFX4
XBUFX4_204 vdd gnd _4740_ _4740__bF$buf7 BUFX4
XBUFX4_205 vdd gnd _4740_ _4740__bF$buf6 BUFX4
XBUFX4_206 vdd gnd _4740_ _4740__bF$buf5 BUFX4
XBUFX4_207 vdd gnd _4740_ _4740__bF$buf4 BUFX4
XBUFX4_208 vdd gnd _4740_ _4740__bF$buf3 BUFX4
XBUFX4_209 vdd gnd _4740_ _4740__bF$buf2 BUFX4
XBUFX4_210 vdd gnd _4740_ _4740__bF$buf1 BUFX4
XBUFX4_211 vdd gnd _4740_ _4740__bF$buf0 BUFX4
XBUFX4_212 vdd gnd _290_ _290__bF$buf15 BUFX4
XBUFX4_213 vdd gnd _290_ _290__bF$buf14 BUFX4
XBUFX4_214 vdd gnd _290_ _290__bF$buf13 BUFX4
XBUFX4_215 vdd gnd _290_ _290__bF$buf12 BUFX4
XBUFX4_216 vdd gnd _290_ _290__bF$buf11 BUFX4
XBUFX4_217 vdd gnd _290_ _290__bF$buf10 BUFX4
XBUFX4_218 vdd gnd _290_ _290__bF$buf9 BUFX4
XBUFX4_219 vdd gnd _290_ _290__bF$buf8 BUFX4
XBUFX4_220 vdd gnd _290_ _290__bF$buf7 BUFX4
XBUFX4_221 vdd gnd _290_ _290__bF$buf6 BUFX4
XBUFX4_222 vdd gnd _290_ _290__bF$buf5 BUFX4
XBUFX4_223 vdd gnd _290_ _290__bF$buf4 BUFX4
XBUFX4_224 vdd gnd _290_ _290__bF$buf3 BUFX4
XBUFX4_225 vdd gnd _290_ _290__bF$buf2 BUFX4
XBUFX4_226 vdd gnd _290_ _290__bF$buf1 BUFX4
XBUFX4_227 vdd gnd _290_ _290__bF$buf0 BUFX4
XBUFX2_132 vdd gnd _1614_ _1614__bF$buf3 BUFX2
XBUFX2_133 vdd gnd _1614_ _1614__bF$buf2 BUFX2
XBUFX2_134 vdd gnd _1614_ _1614__bF$buf1 BUFX2
XBUFX2_135 vdd gnd _1614_ _1614__bF$buf0 BUFX2
XBUFX2_136 vdd gnd _3439_ _3439__bF$buf3 BUFX2
XBUFX2_137 vdd gnd _3439_ _3439__bF$buf2 BUFX2
XBUFX2_138 vdd gnd _3439_ _3439__bF$buf1 BUFX2
XBUFX2_139 vdd gnd _3439_ _3439__bF$buf0 BUFX2
XBUFX2_140 vdd gnd _4997_ _4997__bF$buf6 BUFX2
XBUFX2_141 vdd gnd _4997_ _4997__bF$buf5 BUFX2
XBUFX2_142 vdd gnd _4997_ _4997__bF$buf4 BUFX2
XBUFX2_143 vdd gnd _4997_ _4997__bF$buf3 BUFX2
XBUFX2_144 vdd gnd _4997_ _4997__bF$buf2 BUFX2
XBUFX2_145 vdd gnd _4997_ _4997__bF$buf1 BUFX2
XBUFX2_146 vdd gnd _4997_ _4997__bF$buf0 BUFX2
XBUFX4_228 vdd gnd _4733_ _4733__bF$buf7 BUFX4
XBUFX4_229 vdd gnd _4733_ _4733__bF$buf6 BUFX4
XBUFX4_230 vdd gnd _4733_ _4733__bF$buf5 BUFX4
XBUFX4_231 vdd gnd _4733_ _4733__bF$buf4 BUFX4
XBUFX2_147 vdd gnd _4733_ _4733__bF$buf3 BUFX2
XBUFX4_232 vdd gnd _4733_ _4733__bF$buf2 BUFX4
XBUFX4_233 vdd gnd _4733_ _4733__bF$buf1 BUFX4
XBUFX2_148 vdd gnd _4733_ _4733__bF$buf0 BUFX2
XBUFX2_149 vdd gnd _855_ _855__bF$buf4 BUFX2
XBUFX2_150 vdd gnd _855_ _855__bF$buf3 BUFX2
XBUFX2_151 vdd gnd _855_ _855__bF$buf2 BUFX2
XBUFX2_152 vdd gnd _855_ _855__bF$buf1 BUFX2
XBUFX2_153 vdd gnd _855_ _855__bF$buf0 BUFX2
XBUFX2_154 vdd gnd _3332_ _3332__bF$buf3 BUFX2
XBUFX2_155 vdd gnd _3332_ _3332__bF$buf2 BUFX2
XBUFX2_156 vdd gnd _3332_ _3332__bF$buf1 BUFX2
XBUFX2_157 vdd gnd _3332_ _3332__bF$buf0 BUFX2
XBUFX2_158 vdd gnd _1632_ _1632__bF$buf4 BUFX2
XBUFX2_159 vdd gnd _1632_ _1632__bF$buf3 BUFX2
XBUFX2_160 vdd gnd _1632_ _1632__bF$buf2 BUFX2
XBUFX2_161 vdd gnd _1632_ _1632__bF$buf1 BUFX2
XBUFX2_162 vdd gnd _1632_ _1632__bF$buf0 BUFX2
XBUFX2_163 vdd gnd mux0.sel mux0.sel_bF$buf5 BUFX2
XBUFX2_164 vdd gnd mux0.sel mux0.sel_bF$buf4 BUFX2
XBUFX2_165 vdd gnd mux0.sel mux0.sel_bF$buf3 BUFX2
XBUFX2_166 vdd gnd mux0.sel mux0.sel_bF$buf2 BUFX2
XBUFX2_167 vdd gnd mux0.sel mux0.sel_bF$buf1 BUFX2
XBUFX2_168 vdd gnd mux0.sel mux0.sel_bF$buf0 BUFX2
XBUFX4_234 vdd gnd concatenador.counter_2d<0> concatenador.counter_2d_0_bF$buf12 BUFX4
XBUFX4_235 vdd gnd concatenador.counter_2d<0> concatenador.counter_2d_0_bF$buf11 BUFX4
XBUFX4_236 vdd gnd concatenador.counter_2d<0> concatenador.counter_2d_0_bF$buf10 BUFX4
XBUFX4_237 vdd gnd concatenador.counter_2d<0> concatenador.counter_2d_0_bF$buf9 BUFX4
XBUFX4_238 vdd gnd concatenador.counter_2d<0> concatenador.counter_2d_0_bF$buf8 BUFX4
XBUFX4_239 vdd gnd concatenador.counter_2d<0> concatenador.counter_2d_0_bF$buf7 BUFX4
XBUFX4_240 vdd gnd concatenador.counter_2d<0> concatenador.counter_2d_0_bF$buf6 BUFX4
XBUFX4_241 vdd gnd concatenador.counter_2d<0> concatenador.counter_2d_0_bF$buf5 BUFX4
XBUFX4_242 vdd gnd concatenador.counter_2d<0> concatenador.counter_2d_0_bF$buf4 BUFX4
XBUFX4_243 vdd gnd concatenador.counter_2d<0> concatenador.counter_2d_0_bF$buf3 BUFX4
XBUFX4_244 vdd gnd concatenador.counter_2d<0> concatenador.counter_2d_0_bF$buf2 BUFX4
XBUFX4_245 vdd gnd concatenador.counter_2d<0> concatenador.counter_2d_0_bF$buf1 BUFX4
XBUFX4_246 vdd gnd concatenador.counter_2d<0> concatenador.counter_2d_0_bF$buf0 BUFX4
XBUFX2_169 vdd gnd _2459_ _2459__bF$buf6 BUFX2
XBUFX2_170 vdd gnd _2459_ _2459__bF$buf5 BUFX2
XBUFX2_171 vdd gnd _2459_ _2459__bF$buf4 BUFX2
XBUFX2_172 vdd gnd _2459_ _2459__bF$buf3 BUFX2
XBUFX2_173 vdd gnd _2459_ _2459__bF$buf2 BUFX2
XBUFX2_174 vdd gnd _2459_ _2459__bF$buf1 BUFX2
XBUFX2_175 vdd gnd _2459_ _2459__bF$buf0 BUFX2
XBUFX2_176 vdd gnd _1523_ _1523__bF$buf3 BUFX2
XBUFX2_177 vdd gnd _1523_ _1523__bF$buf2 BUFX2
XBUFX2_178 vdd gnd _1523_ _1523__bF$buf1 BUFX2
XBUFX2_179 vdd gnd _1523_ _1523__bF$buf0 BUFX2
XBUFX2_180 vdd gnd _10_ _10__bF$buf6 BUFX2
XBUFX2_181 vdd gnd _10_ _10__bF$buf5 BUFX2
XBUFX2_182 vdd gnd _10_ _10__bF$buf4 BUFX2
XBUFX2_183 vdd gnd _10_ _10__bF$buf3 BUFX2
XBUFX2_184 vdd gnd _10_ _10__bF$buf2 BUFX2
XBUFX2_185 vdd gnd _10_ _10__bF$buf1 BUFX2
XBUFX2_186 vdd gnd _10_ _10__bF$buf0 BUFX2
XBUFX2_187 vdd gnd _1_ _1__bF$buf5 BUFX2
XBUFX2_188 vdd gnd _1_ _1__bF$buf4 BUFX2
XBUFX2_189 vdd gnd _1_ _1__bF$buf3 BUFX2
XBUFX2_190 vdd gnd _1_ _1__bF$buf2 BUFX2
XBUFX2_191 vdd gnd _1_ _1__bF$buf1 BUFX2
XBUFX2_192 vdd gnd _1_ _1__bF$buf0 BUFX2
XBUFX2_193 vdd gnd _3440_ _3440__bF$buf4 BUFX2
XBUFX2_194 vdd gnd _3440_ _3440__bF$buf3 BUFX2
XBUFX2_195 vdd gnd _3440_ _3440__bF$buf2 BUFX2
XBUFX2_196 vdd gnd _3440_ _3440__bF$buf1 BUFX2
XBUFX2_197 vdd gnd _3440_ _3440__bF$buf0 BUFX2
XBUFX2_198 vdd gnd _1643_ _1643__bF$buf3 BUFX2
XBUFX2_199 vdd gnd _1643_ _1643__bF$buf2 BUFX2
XBUFX2_200 vdd gnd _1643_ _1643__bF$buf1 BUFX2
XBUFX2_201 vdd gnd _1643_ _1643__bF$buf0 BUFX2
XBUFX2_202 vdd gnd reset_L_hier0_bF$buf6 reset_L_bF$buf49 BUFX2
XBUFX4_247 vdd gnd reset_L_hier0_bF$buf5 reset_L_bF$buf48 BUFX4
XBUFX2_203 vdd gnd reset_L_hier0_bF$buf4 reset_L_bF$buf47 BUFX2
XBUFX2_204 vdd gnd reset_L_hier0_bF$buf3 reset_L_bF$buf46 BUFX2
XBUFX2_205 vdd gnd reset_L_hier0_bF$buf2 reset_L_bF$buf45 BUFX2
XBUFX4_248 vdd gnd reset_L_hier0_bF$buf1 reset_L_bF$buf44 BUFX4
XBUFX2_206 vdd gnd reset_L_hier0_bF$buf0 reset_L_bF$buf43 BUFX2
XBUFX2_207 vdd gnd reset_L_hier0_bF$buf6 reset_L_bF$buf42 BUFX2
XBUFX2_208 vdd gnd reset_L_hier0_bF$buf5 reset_L_bF$buf41 BUFX2
XBUFX2_209 vdd gnd reset_L_hier0_bF$buf4 reset_L_bF$buf40 BUFX2
XBUFX2_210 vdd gnd reset_L_hier0_bF$buf3 reset_L_bF$buf39 BUFX2
XBUFX2_211 vdd gnd reset_L_hier0_bF$buf2 reset_L_bF$buf38 BUFX2
XBUFX2_212 vdd gnd reset_L_hier0_bF$buf1 reset_L_bF$buf37 BUFX2
XBUFX2_213 vdd gnd reset_L_hier0_bF$buf0 reset_L_bF$buf36 BUFX2
XBUFX2_214 vdd gnd reset_L_hier0_bF$buf6 reset_L_bF$buf35 BUFX2
XBUFX2_215 vdd gnd reset_L_hier0_bF$buf5 reset_L_bF$buf34 BUFX2
XBUFX2_216 vdd gnd reset_L_hier0_bF$buf4 reset_L_bF$buf33 BUFX2
XBUFX2_217 vdd gnd reset_L_hier0_bF$buf3 reset_L_bF$buf32 BUFX2
XBUFX2_218 vdd gnd reset_L_hier0_bF$buf2 reset_L_bF$buf31 BUFX2
XBUFX2_219 vdd gnd reset_L_hier0_bF$buf1 reset_L_bF$buf30 BUFX2
XBUFX2_220 vdd gnd reset_L_hier0_bF$buf0 reset_L_bF$buf29 BUFX2
XBUFX2_221 vdd gnd reset_L_hier0_bF$buf6 reset_L_bF$buf28 BUFX2
XBUFX2_222 vdd gnd reset_L_hier0_bF$buf5 reset_L_bF$buf27 BUFX2
XBUFX2_223 vdd gnd reset_L_hier0_bF$buf4 reset_L_bF$buf26 BUFX2
XBUFX2_224 vdd gnd reset_L_hier0_bF$buf3 reset_L_bF$buf25 BUFX2
XBUFX2_225 vdd gnd reset_L_hier0_bF$buf2 reset_L_bF$buf24 BUFX2
XBUFX2_226 vdd gnd reset_L_hier0_bF$buf1 reset_L_bF$buf23 BUFX2
XBUFX2_227 vdd gnd reset_L_hier0_bF$buf0 reset_L_bF$buf22 BUFX2
XBUFX2_228 vdd gnd reset_L_hier0_bF$buf6 reset_L_bF$buf21 BUFX2
XBUFX2_229 vdd gnd reset_L_hier0_bF$buf5 reset_L_bF$buf20 BUFX2
XBUFX2_230 vdd gnd reset_L_hier0_bF$buf4 reset_L_bF$buf19 BUFX2
XBUFX2_231 vdd gnd reset_L_hier0_bF$buf3 reset_L_bF$buf18 BUFX2
XBUFX2_232 vdd gnd reset_L_hier0_bF$buf2 reset_L_bF$buf17 BUFX2
XBUFX2_233 vdd gnd reset_L_hier0_bF$buf1 reset_L_bF$buf16 BUFX2
XBUFX2_234 vdd gnd reset_L_hier0_bF$buf0 reset_L_bF$buf15 BUFX2
XBUFX2_235 vdd gnd reset_L_hier0_bF$buf6 reset_L_bF$buf14 BUFX2
XBUFX2_236 vdd gnd reset_L_hier0_bF$buf5 reset_L_bF$buf13 BUFX2
XBUFX2_237 vdd gnd reset_L_hier0_bF$buf4 reset_L_bF$buf12 BUFX2
XBUFX2_238 vdd gnd reset_L_hier0_bF$buf3 reset_L_bF$buf11 BUFX2
XBUFX2_239 vdd gnd reset_L_hier0_bF$buf2 reset_L_bF$buf10 BUFX2
XBUFX2_240 vdd gnd reset_L_hier0_bF$buf1 reset_L_bF$buf9 BUFX2
XBUFX2_241 vdd gnd reset_L_hier0_bF$buf0 reset_L_bF$buf8 BUFX2
XBUFX2_242 vdd gnd reset_L_hier0_bF$buf6 reset_L_bF$buf7 BUFX2
XBUFX2_243 vdd gnd reset_L_hier0_bF$buf5 reset_L_bF$buf6 BUFX2
XBUFX2_244 vdd gnd reset_L_hier0_bF$buf4 reset_L_bF$buf5 BUFX2
XBUFX4_249 vdd gnd reset_L_hier0_bF$buf3 reset_L_bF$buf4 BUFX4
XBUFX2_245 vdd gnd reset_L_hier0_bF$buf2 reset_L_bF$buf3 BUFX2
XBUFX2_246 vdd gnd reset_L_hier0_bF$buf1 reset_L_bF$buf2 BUFX2
XBUFX2_247 vdd gnd reset_L_hier0_bF$buf0 reset_L_bF$buf1 BUFX2
XBUFX4_250 vdd gnd reset_L_hier0_bF$buf6 reset_L_bF$buf0 BUFX4
XBUFX4_251 vdd gnd _2930_ _2930__bF$buf13 BUFX4
XBUFX4_252 vdd gnd _2930_ _2930__bF$buf12 BUFX4
XBUFX4_253 vdd gnd _2930_ _2930__bF$buf11 BUFX4
XBUFX4_254 vdd gnd _2930_ _2930__bF$buf10 BUFX4
XBUFX4_255 vdd gnd _2930_ _2930__bF$buf9 BUFX4
XBUFX4_256 vdd gnd _2930_ _2930__bF$buf8 BUFX4
XBUFX4_257 vdd gnd _2930_ _2930__bF$buf7 BUFX4
XBUFX4_258 vdd gnd _2930_ _2930__bF$buf6 BUFX4
XBUFX4_259 vdd gnd _2930_ _2930__bF$buf5 BUFX4
XBUFX4_260 vdd gnd _2930_ _2930__bF$buf4 BUFX4
XBUFX4_261 vdd gnd _2930_ _2930__bF$buf3 BUFX4
XBUFX4_262 vdd gnd _2930_ _2930__bF$buf2 BUFX4
XBUFX4_263 vdd gnd _2930_ _2930__bF$buf1 BUFX4
XBUFX4_264 vdd gnd _2930_ _2930__bF$buf0 BUFX4
XBUFX2_248 vdd gnd _1629_ _1629__bF$buf3 BUFX2
XBUFX2_249 vdd gnd _1629_ _1629__bF$buf2 BUFX2
XBUFX2_250 vdd gnd _1629_ _1629__bF$buf1 BUFX2
XBUFX2_251 vdd gnd _1629_ _1629__bF$buf0 BUFX2
XBUFX2_252 vdd gnd _2923_ _2923__bF$buf7 BUFX2
XBUFX4_265 vdd gnd _2923_ _2923__bF$buf6 BUFX4
XBUFX4_266 vdd gnd _2923_ _2923__bF$buf5 BUFX4
XBUFX4_267 vdd gnd _2923_ _2923__bF$buf4 BUFX4
XBUFX2_253 vdd gnd _2923_ _2923__bF$buf3 BUFX2
XBUFX4_268 vdd gnd _2923_ _2923__bF$buf2 BUFX4
XBUFX2_254 vdd gnd _2923_ _2923__bF$buf1 BUFX2
XBUFX2_255 vdd gnd _2923_ _2923__bF$buf0 BUFX2
XBUFX2_256 vdd gnd _1522_ _1522__bF$buf3 BUFX2
XBUFX2_257 vdd gnd _1522_ _1522__bF$buf2 BUFX2
XBUFX2_258 vdd gnd _1522_ _1522__bF$buf1 BUFX2
XBUFX2_259 vdd gnd _1522_ _1522__bF$buf0 BUFX2
XBUFX2_260 vdd gnd _5012_ _5012__bF$buf6 BUFX2
XBUFX2_261 vdd gnd _5012_ _5012__bF$buf5 BUFX2
XBUFX2_262 vdd gnd _5012_ _5012__bF$buf4 BUFX2
XBUFX2_263 vdd gnd _5012_ _5012__bF$buf3 BUFX2
XBUFX2_264 vdd gnd _5012_ _5012__bF$buf2 BUFX2
XBUFX2_265 vdd gnd _5012_ _5012__bF$buf1 BUFX2
XBUFX2_266 vdd gnd _5012_ _5012__bF$buf0 BUFX2
XBUFX2_267 vdd gnd concatenador.counter<1> concatenador.counter_1_bF$buf7 BUFX2
XBUFX2_268 vdd gnd concatenador.counter<1> concatenador.counter_1_bF$buf6 BUFX2
XBUFX2_269 vdd gnd concatenador.counter<1> concatenador.counter_1_bF$buf5 BUFX2
XBUFX2_270 vdd gnd concatenador.counter<1> concatenador.counter_1_bF$buf4 BUFX2