* XSpice netlist created from SPICE and liberty sources by spi2xspice.py
*SPICE netlist created from BLIF module hash by blif2BSpice
.subckt hash a_vdd a_gnd a_target_0_ a_target_1_ a_target_2_ a_target_3_ a_target_4_ a_target_5_ a_target_6_ a_target_7_ a_clk a_reset_L a_num_entradas_0_ a_num_entradas_1_ a_bounty_out_0_ a_bounty_out_1_ a_bounty_out_2_ a_bounty_out_3_ a_bounty_out_4_ a_bounty_out_5_ a_bounty_out_6_ a_bounty_out_7_ a_bounty_out_8_ a_bounty_out_9_ a_bounty_out_10_ a_bounty_out_11_ a_bounty_out_12_ a_bounty_out_13_ a_bounty_out_14_ a_bounty_out_15_ a_bounty_out_16_ a_bounty_out_17_ a_bounty_out_18_ a_bounty_out_19_ a_bounty_out_20_ a_bounty_out_21_ a_bounty_out_22_ a_bounty_out_23_ a_nonce_valido_out_0_ a_nonce_valido_out_1_ a_nonce_valido_out_2_ a_nonce_valido_out_3_ a_nonce_valido_out_4_ a_nonce_valido_out_5_ a_nonce_valido_out_6_ a_nonce_valido_out_7_ a_nonce_valido_out_8_ a_nonce_valido_out_9_ a_nonce_valido_out_10_ a_nonce_valido_out_11_ a_nonce_valido_out_12_ a_nonce_valido_out_13_ a_nonce_valido_out_14_ a_nonce_valido_out_15_ a_nonce_valido_out_16_ a_nonce_valido_out_17_ a_nonce_valido_out_18_ a_nonce_valido_out_19_ a_nonce_valido_out_20_ a_nonce_valido_out_21_ a_nonce_valido_out_22_ a_nonce_valido_out_23_ a_nonce_valido_out_24_ a_nonce_valido_out_25_ a_nonce_valido_out_26_ a_nonce_valido_out_27_ a_nonce_valido_out_28_ a_nonce_valido_out_29_ a_nonce_valido_out_30_ a_nonce_valido_out_31_ a_nonce_0_ a_nonce_1_ a_nonce_2_ a_nonce_3_ a_nonce_4_ a_nonce_5_ a_nonce_6_ a_nonce_7_ a_nonce_8_ a_nonce_9_ a_nonce_10_ a_nonce_11_ a_nonce_12_ a_nonce_13_ a_nonce_14_ a_nonce_15_ a_nonce_16_ a_nonce_17_ a_nonce_18_ a_nonce_19_ a_nonce_20_ a_nonce_21_ a_nonce_22_ a_nonce_23_ a_nonce_24_ a_nonce_25_ a_nonce_26_ a_nonce_27_ a_nonce_28_ a_nonce_29_ a_nonce_30_ a_nonce_31_ a_fin
ABUFX4_1 [clk] clk_hier0_bF$buf9 d_lut_BUFX4
ABUFX4_2 [clk] clk_hier0_bF$buf8 d_lut_BUFX4
ABUFX4_3 [clk] clk_hier0_bF$buf7 d_lut_BUFX4
ABUFX4_4 [clk] clk_hier0_bF$buf6 d_lut_BUFX4
ABUFX4_5 [clk] clk_hier0_bF$buf5 d_lut_BUFX4
ABUFX4_6 [clk] clk_hier0_bF$buf4 d_lut_BUFX4
ABUFX4_7 [clk] clk_hier0_bF$buf3 d_lut_BUFX4
ABUFX4_8 [clk] clk_hier0_bF$buf2 d_lut_BUFX4
ABUFX4_9 [clk] clk_hier0_bF$buf1 d_lut_BUFX4
ABUFX4_10 [clk] clk_hier0_bF$buf0 d_lut_BUFX4
ABUFX2_1 [reset_L] reset_L_hier0_bF$buf6 d_lut_BUFX2
ABUFX2_2 [reset_L] reset_L_hier0_bF$buf5 d_lut_BUFX2
ABUFX2_3 [reset_L] reset_L_hier0_bF$buf4 d_lut_BUFX2
ABUFX2_4 [reset_L] reset_L_hier0_bF$buf3 d_lut_BUFX2
ABUFX2_5 [reset_L] reset_L_hier0_bF$buf2 d_lut_BUFX2
ABUFX2_6 [reset_L] reset_L_hier0_bF$buf1 d_lut_BUFX2
ABUFX2_7 [reset_L] reset_L_hier0_bF$buf0 d_lut_BUFX2
ABUFX4_11 [_92_] _92__bF$buf6 d_lut_BUFX4
ABUFX2_8 [_92_] _92__bF$buf5 d_lut_BUFX2
ABUFX2_9 [_92_] _92__bF$buf4 d_lut_BUFX2
ABUFX2_10 [_92_] _92__bF$buf3 d_lut_BUFX2
ABUFX2_11 [_92_] _92__bF$buf2 d_lut_BUFX2
ABUFX2_12 [_92_] _92__bF$buf1 d_lut_BUFX2
ABUFX2_13 [_92_] _92__bF$buf0 d_lut_BUFX2
ABUFX2_14 [_1630_] _1630__bF$buf4 d_lut_BUFX2
ABUFX2_15 [_1630_] _1630__bF$buf3 d_lut_BUFX2
ABUFX2_16 [_1630_] _1630__bF$buf2 d_lut_BUFX2
ABUFX2_17 [_1630_] _1630__bF$buf1 d_lut_BUFX2
ABUFX2_18 [_1630_] _1630__bF$buf0 d_lut_BUFX2
ABUFX4_12 [clk_hier0_bF$buf9] clk_bF$buf113 d_lut_BUFX4
ABUFX4_13 [clk_hier0_bF$buf8] clk_bF$buf112 d_lut_BUFX4
ABUFX4_14 [clk_hier0_bF$buf7] clk_bF$buf111 d_lut_BUFX4
ABUFX4_15 [clk_hier0_bF$buf6] clk_bF$buf110 d_lut_BUFX4
ABUFX4_16 [clk_hier0_bF$buf5] clk_bF$buf109 d_lut_BUFX4
ABUFX4_17 [clk_hier0_bF$buf4] clk_bF$buf108 d_lut_BUFX4
ABUFX4_18 [clk_hier0_bF$buf3] clk_bF$buf107 d_lut_BUFX4
ABUFX4_19 [clk_hier0_bF$buf2] clk_bF$buf106 d_lut_BUFX4
ABUFX4_20 [clk_hier0_bF$buf1] clk_bF$buf105 d_lut_BUFX4
ABUFX4_21 [clk_hier0_bF$buf0] clk_bF$buf104 d_lut_BUFX4
ABUFX4_22 [clk_hier0_bF$buf9] clk_bF$buf103 d_lut_BUFX4
ABUFX4_23 [clk_hier0_bF$buf8] clk_bF$buf102 d_lut_BUFX4
ABUFX4_24 [clk_hier0_bF$buf7] clk_bF$buf101 d_lut_BUFX4
ABUFX4_25 [clk_hier0_bF$buf6] clk_bF$buf100 d_lut_BUFX4
ABUFX4_26 [clk_hier0_bF$buf5] clk_bF$buf99 d_lut_BUFX4
ABUFX4_27 [clk_hier0_bF$buf4] clk_bF$buf98 d_lut_BUFX4
ABUFX4_28 [clk_hier0_bF$buf3] clk_bF$buf97 d_lut_BUFX4
ABUFX4_29 [clk_hier0_bF$buf2] clk_bF$buf96 d_lut_BUFX4
ABUFX4_30 [clk_hier0_bF$buf1] clk_bF$buf95 d_lut_BUFX4
ABUFX4_31 [clk_hier0_bF$buf0] clk_bF$buf94 d_lut_BUFX4
ABUFX4_32 [clk_hier0_bF$buf9] clk_bF$buf93 d_lut_BUFX4
ABUFX4_33 [clk_hier0_bF$buf8] clk_bF$buf92 d_lut_BUFX4
ABUFX4_34 [clk_hier0_bF$buf7] clk_bF$buf91 d_lut_BUFX4
ABUFX4_35 [clk_hier0_bF$buf6] clk_bF$buf90 d_lut_BUFX4
ABUFX4_36 [clk_hier0_bF$buf5] clk_bF$buf89 d_lut_BUFX4
ABUFX4_37 [clk_hier0_bF$buf4] clk_bF$buf88 d_lut_BUFX4
ABUFX4_38 [clk_hier0_bF$buf3] clk_bF$buf87 d_lut_BUFX4
ABUFX4_39 [clk_hier0_bF$buf2] clk_bF$buf86 d_lut_BUFX4
ABUFX4_40 [clk_hier0_bF$buf1] clk_bF$buf85 d_lut_BUFX4
ABUFX4_41 [clk_hier0_bF$buf0] clk_bF$buf84 d_lut_BUFX4
ABUFX4_42 [clk_hier0_bF$buf9] clk_bF$buf83 d_lut_BUFX4
ABUFX4_43 [clk_hier0_bF$buf8] clk_bF$buf82 d_lut_BUFX4
ABUFX4_44 [clk_hier0_bF$buf7] clk_bF$buf81 d_lut_BUFX4
ABUFX4_45 [clk_hier0_bF$buf6] clk_bF$buf80 d_lut_BUFX4
ABUFX4_46 [clk_hier0_bF$buf5] clk_bF$buf79 d_lut_BUFX4
ABUFX4_47 [clk_hier0_bF$buf4] clk_bF$buf78 d_lut_BUFX4
ABUFX4_48 [clk_hier0_bF$buf3] clk_bF$buf77 d_lut_BUFX4
ABUFX4_49 [clk_hier0_bF$buf2] clk_bF$buf76 d_lut_BUFX4
ABUFX4_50 [clk_hier0_bF$buf1] clk_bF$buf75 d_lut_BUFX4
ABUFX4_51 [clk_hier0_bF$buf0] clk_bF$buf74 d_lut_BUFX4
ABUFX4_52 [clk_hier0_bF$buf9] clk_bF$buf73 d_lut_BUFX4
ABUFX4_53 [clk_hier0_bF$buf8] clk_bF$buf72 d_lut_BUFX4
ABUFX4_54 [clk_hier0_bF$buf7] clk_bF$buf71 d_lut_BUFX4
ABUFX4_55 [clk_hier0_bF$buf6] clk_bF$buf70 d_lut_BUFX4
ABUFX4_56 [clk_hier0_bF$buf5] clk_bF$buf69 d_lut_BUFX4
ABUFX4_57 [clk_hier0_bF$buf4] clk_bF$buf68 d_lut_BUFX4
ABUFX4_58 [clk_hier0_bF$buf3] clk_bF$buf67 d_lut_BUFX4
ABUFX4_59 [clk_hier0_bF$buf2] clk_bF$buf66 d_lut_BUFX4
ABUFX4_60 [clk_hier0_bF$buf1] clk_bF$buf65 d_lut_BUFX4
ABUFX4_61 [clk_hier0_bF$buf0] clk_bF$buf64 d_lut_BUFX4
ABUFX4_62 [clk_hier0_bF$buf9] clk_bF$buf63 d_lut_BUFX4
ABUFX4_63 [clk_hier0_bF$buf8] clk_bF$buf62 d_lut_BUFX4
ABUFX4_64 [clk_hier0_bF$buf7] clk_bF$buf61 d_lut_BUFX4
ABUFX4_65 [clk_hier0_bF$buf6] clk_bF$buf60 d_lut_BUFX4
ABUFX4_66 [clk_hier0_bF$buf5] clk_bF$buf59 d_lut_BUFX4
ABUFX4_67 [clk_hier0_bF$buf4] clk_bF$buf58 d_lut_BUFX4
ABUFX4_68 [clk_hier0_bF$buf3] clk_bF$buf57 d_lut_BUFX4
ABUFX4_69 [clk_hier0_bF$buf2] clk_bF$buf56 d_lut_BUFX4
ABUFX4_70 [clk_hier0_bF$buf1] clk_bF$buf55 d_lut_BUFX4
ABUFX4_71 [clk_hier0_bF$buf0] clk_bF$buf54 d_lut_BUFX4
ABUFX4_72 [clk_hier0_bF$buf9] clk_bF$buf53 d_lut_BUFX4
ABUFX4_73 [clk_hier0_bF$buf8] clk_bF$buf52 d_lut_BUFX4
ABUFX4_74 [clk_hier0_bF$buf7] clk_bF$buf51 d_lut_BUFX4
ABUFX4_75 [clk_hier0_bF$buf6] clk_bF$buf50 d_lut_BUFX4
ABUFX4_76 [clk_hier0_bF$buf5] clk_bF$buf49 d_lut_BUFX4
ABUFX4_77 [clk_hier0_bF$buf4] clk_bF$buf48 d_lut_BUFX4
ABUFX4_78 [clk_hier0_bF$buf3] clk_bF$buf47 d_lut_BUFX4
ABUFX4_79 [clk_hier0_bF$buf2] clk_bF$buf46 d_lut_BUFX4
ABUFX4_80 [clk_hier0_bF$buf1] clk_bF$buf45 d_lut_BUFX4
ABUFX4_81 [clk_hier0_bF$buf0] clk_bF$buf44 d_lut_BUFX4
ABUFX4_82 [clk_hier0_bF$buf9] clk_bF$buf43 d_lut_BUFX4
ABUFX4_83 [clk_hier0_bF$buf8] clk_bF$buf42 d_lut_BUFX4
ABUFX4_84 [clk_hier0_bF$buf7] clk_bF$buf41 d_lut_BUFX4
ABUFX4_85 [clk_hier0_bF$buf6] clk_bF$buf40 d_lut_BUFX4
ABUFX4_86 [clk_hier0_bF$buf5] clk_bF$buf39 d_lut_BUFX4
ABUFX4_87 [clk_hier0_bF$buf4] clk_bF$buf38 d_lut_BUFX4
ABUFX4_88 [clk_hier0_bF$buf3] clk_bF$buf37 d_lut_BUFX4
ABUFX4_89 [clk_hier0_bF$buf2] clk_bF$buf36 d_lut_BUFX4
ABUFX4_90 [clk_hier0_bF$buf1] clk_bF$buf35 d_lut_BUFX4
ABUFX4_91 [clk_hier0_bF$buf0] clk_bF$buf34 d_lut_BUFX4
ABUFX4_92 [clk_hier0_bF$buf9] clk_bF$buf33 d_lut_BUFX4
ABUFX4_93 [clk_hier0_bF$buf8] clk_bF$buf32 d_lut_BUFX4
ABUFX4_94 [clk_hier0_bF$buf7] clk_bF$buf31 d_lut_BUFX4
ABUFX4_95 [clk_hier0_bF$buf6] clk_bF$buf30 d_lut_BUFX4
ABUFX4_96 [clk_hier0_bF$buf5] clk_bF$buf29 d_lut_BUFX4
ABUFX4_97 [clk_hier0_bF$buf4] clk_bF$buf28 d_lut_BUFX4
ABUFX4_98 [clk_hier0_bF$buf3] clk_bF$buf27 d_lut_BUFX4
ABUFX4_99 [clk_hier0_bF$buf2] clk_bF$buf26 d_lut_BUFX4
ABUFX4_100 [clk_hier0_bF$buf1] clk_bF$buf25 d_lut_BUFX4
ABUFX4_101 [clk_hier0_bF$buf0] clk_bF$buf24 d_lut_BUFX4
ABUFX4_102 [clk_hier0_bF$buf9] clk_bF$buf23 d_lut_BUFX4
ABUFX4_103 [clk_hier0_bF$buf8] clk_bF$buf22 d_lut_BUFX4
ABUFX4_104 [clk_hier0_bF$buf7] clk_bF$buf21 d_lut_BUFX4
ABUFX4_105 [clk_hier0_bF$buf6] clk_bF$buf20 d_lut_BUFX4
ABUFX4_106 [clk_hier0_bF$buf5] clk_bF$buf19 d_lut_BUFX4
ABUFX4_107 [clk_hier0_bF$buf4] clk_bF$buf18 d_lut_BUFX4
ABUFX4_108 [clk_hier0_bF$buf3] clk_bF$buf17 d_lut_BUFX4
ABUFX4_109 [clk_hier0_bF$buf2] clk_bF$buf16 d_lut_BUFX4
ABUFX4_110 [clk_hier0_bF$buf1] clk_bF$buf15 d_lut_BUFX4
ABUFX4_111 [clk_hier0_bF$buf0] clk_bF$buf14 d_lut_BUFX4
ABUFX4_112 [clk_hier0_bF$buf9] clk_bF$buf13 d_lut_BUFX4
ABUFX4_113 [clk_hier0_bF$buf8] clk_bF$buf12 d_lut_BUFX4
ABUFX4_114 [clk_hier0_bF$buf7] clk_bF$buf11 d_lut_BUFX4
ABUFX4_115 [clk_hier0_bF$buf6] clk_bF$buf10 d_lut_BUFX4
ABUFX4_116 [clk_hier0_bF$buf5] clk_bF$buf9 d_lut_BUFX4
ABUFX4_117 [clk_hier0_bF$buf4] clk_bF$buf8 d_lut_BUFX4
ABUFX4_118 [clk_hier0_bF$buf3] clk_bF$buf7 d_lut_BUFX4
ABUFX4_119 [clk_hier0_bF$buf2] clk_bF$buf6 d_lut_BUFX4
ABUFX4_120 [clk_hier0_bF$buf1] clk_bF$buf5 d_lut_BUFX4
ABUFX4_121 [clk_hier0_bF$buf0] clk_bF$buf4 d_lut_BUFX4
ABUFX4_122 [clk_hier0_bF$buf9] clk_bF$buf3 d_lut_BUFX4
ABUFX4_123 [clk_hier0_bF$buf8] clk_bF$buf2 d_lut_BUFX4
ABUFX4_124 [clk_hier0_bF$buf7] clk_bF$buf1 d_lut_BUFX4
ABUFX4_125 [clk_hier0_bF$buf6] clk_bF$buf0 d_lut_BUFX4
ABUFX2_19 [_117_] _117__bF$buf6 d_lut_BUFX2
ABUFX2_20 [_117_] _117__bF$buf5 d_lut_BUFX2
ABUFX2_21 [_117_] _117__bF$buf4 d_lut_BUFX2
ABUFX2_22 [_117_] _117__bF$buf3 d_lut_BUFX2
ABUFX2_23 [_117_] _117__bF$buf2 d_lut_BUFX2
ABUFX2_24 [_117_] _117__bF$buf1 d_lut_BUFX2
ABUFX2_25 [_117_] _117__bF$buf0 d_lut_BUFX2
ABUFX2_26 [_3022_] _3022__bF$buf5 d_lut_BUFX2
ABUFX2_27 [_3022_] _3022__bF$buf4 d_lut_BUFX2
ABUFX2_28 [_3022_] _3022__bF$buf3 d_lut_BUFX2
ABUFX2_29 [_3022_] _3022__bF$buf2 d_lut_BUFX2
ABUFX2_30 [_3022_] _3022__bF$buf1 d_lut_BUFX2
ABUFX2_31 [_3022_] _3022__bF$buf0 d_lut_BUFX2
ABUFX4_126 [_142_] _142__bF$buf6 d_lut_BUFX4
ABUFX4_127 [_142_] _142__bF$buf5 d_lut_BUFX4
ABUFX4_128 [_142_] _142__bF$buf4 d_lut_BUFX4
ABUFX4_129 [_142_] _142__bF$buf3 d_lut_BUFX4
ABUFX4_130 [_142_] _142__bF$buf2 d_lut_BUFX4
ABUFX4_131 [_142_] _142__bF$buf1 d_lut_BUFX4
ABUFX4_132 [_142_] _142__bF$buf0 d_lut_BUFX4
ABUFX4_133 [concatenador.counter_0_] concatenador.counter_0_bF$buf13 d_lut_BUFX4
ABUFX4_134 [concatenador.counter_0_] concatenador.counter_0_bF$buf12 d_lut_BUFX4
ABUFX4_135 [concatenador.counter_0_] concatenador.counter_0_bF$buf11 d_lut_BUFX4
ABUFX4_136 [concatenador.counter_0_] concatenador.counter_0_bF$buf10 d_lut_BUFX4
ABUFX4_137 [concatenador.counter_0_] concatenador.counter_0_bF$buf9 d_lut_BUFX4
ABUFX4_138 [concatenador.counter_0_] concatenador.counter_0_bF$buf8 d_lut_BUFX4
ABUFX4_139 [concatenador.counter_0_] concatenador.counter_0_bF$buf7 d_lut_BUFX4
ABUFX4_140 [concatenador.counter_0_] concatenador.counter_0_bF$buf6 d_lut_BUFX4
ABUFX4_141 [concatenador.counter_0_] concatenador.counter_0_bF$buf5 d_lut_BUFX4
ABUFX4_142 [concatenador.counter_0_] concatenador.counter_0_bF$buf4 d_lut_BUFX4
ABUFX4_143 [concatenador.counter_0_] concatenador.counter_0_bF$buf3 d_lut_BUFX4
ABUFX4_144 [concatenador.counter_0_] concatenador.counter_0_bF$buf2 d_lut_BUFX4
ABUFX4_145 [concatenador.counter_0_] concatenador.counter_0_bF$buf1 d_lut_BUFX4
ABUFX4_146 [concatenador.counter_0_] concatenador.counter_0_bF$buf0 d_lut_BUFX4
ABUFX2_32 [_3316_] _3316__bF$buf3 d_lut_BUFX2
ABUFX2_33 [_3316_] _3316__bF$buf2 d_lut_BUFX2
ABUFX2_34 [_3316_] _3316__bF$buf1 d_lut_BUFX2
ABUFX2_35 [_3316_] _3316__bF$buf0 d_lut_BUFX2
ABUFX2_36 [_3443_] _3443__bF$buf5 d_lut_BUFX2
ABUFX2_37 [_3443_] _3443__bF$buf4 d_lut_BUFX2
ABUFX2_38 [_3443_] _3443__bF$buf3 d_lut_BUFX2
ABUFX2_39 [_3443_] _3443__bF$buf2 d_lut_BUFX2
ABUFX2_40 [_3443_] _3443__bF$buf1 d_lut_BUFX2
ABUFX2_41 [_3443_] _3443__bF$buf0 d_lut_BUFX2
ABUFX2_42 [_5004_] _5004__bF$buf6 d_lut_BUFX2
ABUFX2_43 [_5004_] _5004__bF$buf5 d_lut_BUFX2
ABUFX2_44 [_5004_] _5004__bF$buf4 d_lut_BUFX2
ABUFX2_45 [_5004_] _5004__bF$buf3 d_lut_BUFX2
ABUFX2_46 [_5004_] _5004__bF$buf2 d_lut_BUFX2
ABUFX2_47 [_5004_] _5004__bF$buf1 d_lut_BUFX2
ABUFX2_48 [_5004_] _5004__bF$buf0 d_lut_BUFX2
ABUFX4_147 [_4735_] _4735__bF$buf15 d_lut_BUFX4
ABUFX4_148 [_4735_] _4735__bF$buf14 d_lut_BUFX4
ABUFX4_149 [_4735_] _4735__bF$buf13 d_lut_BUFX4
ABUFX4_150 [_4735_] _4735__bF$buf12 d_lut_BUFX4
ABUFX4_151 [_4735_] _4735__bF$buf11 d_lut_BUFX4
ABUFX4_152 [_4735_] _4735__bF$buf10 d_lut_BUFX4
ABUFX4_153 [_4735_] _4735__bF$buf9 d_lut_BUFX4
ABUFX4_154 [_4735_] _4735__bF$buf8 d_lut_BUFX4
ABUFX4_155 [_4735_] _4735__bF$buf7 d_lut_BUFX4
ABUFX4_156 [_4735_] _4735__bF$buf6 d_lut_BUFX4
ABUFX4_157 [_4735_] _4735__bF$buf5 d_lut_BUFX4
ABUFX4_158 [_4735_] _4735__bF$buf4 d_lut_BUFX4
ABUFX4_159 [_4735_] _4735__bF$buf3 d_lut_BUFX4
ABUFX4_160 [_4735_] _4735__bF$buf2 d_lut_BUFX4
ABUFX4_161 [_4735_] _4735__bF$buf1 d_lut_BUFX4
ABUFX4_162 [_4735_] _4735__bF$buf0 d_lut_BUFX4
ABUFX2_49 [_4832_] _4832__bF$buf5 d_lut_BUFX2
ABUFX2_50 [_4832_] _4832__bF$buf4 d_lut_BUFX2
ABUFX2_51 [_4832_] _4832__bF$buf3 d_lut_BUFX2
ABUFX2_52 [_4832_] _4832__bF$buf2 d_lut_BUFX2
ABUFX2_53 [_4832_] _4832__bF$buf1 d_lut_BUFX2
ABUFX2_54 [_4832_] _4832__bF$buf0 d_lut_BUFX2
ABUFX4_163 [mux1.sel] mux1.sel_bF$buf4 d_lut_BUFX4
ABUFX2_55 [mux1.sel] mux1.sel_bF$buf3 d_lut_BUFX2
ABUFX2_56 [mux1.sel] mux1.sel_bF$buf2 d_lut_BUFX2
ABUFX2_57 [mux1.sel] mux1.sel_bF$buf1 d_lut_BUFX2
ABUFX2_58 [mux1.sel] mux1.sel_bF$buf0 d_lut_BUFX2
ABUFX2_59 [RAM.entrada_71_] RAM.entrada_71_bF$buf3 d_lut_BUFX2
ABUFX2_60 [RAM.entrada_71_] RAM.entrada_71_bF$buf2 d_lut_BUFX2
ABUFX2_61 [RAM.entrada_71_] RAM.entrada_71_bF$buf1 d_lut_BUFX2
ABUFX2_62 [RAM.entrada_71_] RAM.entrada_71_bF$buf0 d_lut_BUFX2
ABUFX2_63 [_3489_] _3489__bF$buf3 d_lut_BUFX2
ABUFX2_64 [_3489_] _3489__bF$buf2 d_lut_BUFX2
ABUFX2_65 [_3489_] _3489__bF$buf1 d_lut_BUFX2
ABUFX2_66 [_3489_] _3489__bF$buf0 d_lut_BUFX2
ABUFX2_67 [_3424_] _3424__bF$buf3 d_lut_BUFX2
ABUFX2_68 [_3424_] _3424__bF$buf2 d_lut_BUFX2
ABUFX2_69 [_3424_] _3424__bF$buf1 d_lut_BUFX2
ABUFX2_70 [_3424_] _3424__bF$buf0 d_lut_BUFX2
ABUFX2_71 [_868_] _868__bF$buf3 d_lut_BUFX2
ABUFX2_72 [_868_] _868__bF$buf2 d_lut_BUFX2
ABUFX2_73 [_868_] _868__bF$buf1 d_lut_BUFX2
ABUFX2_74 [_868_] _868__bF$buf0 d_lut_BUFX2
ABUFX2_75 [_3442_] _3442__bF$buf4 d_lut_BUFX2
ABUFX2_76 [_3442_] _3442__bF$buf3 d_lut_BUFX2
ABUFX2_77 [_3442_] _3442__bF$buf2 d_lut_BUFX2
ABUFX2_78 [_3442_] _3442__bF$buf1 d_lut_BUFX2
ABUFX2_79 [_3442_] _3442__bF$buf0 d_lut_BUFX2
ABUFX2_80 [_4269_] _4269__bF$buf6 d_lut_BUFX2
ABUFX2_81 [_4269_] _4269__bF$buf5 d_lut_BUFX2
ABUFX2_82 [_4269_] _4269__bF$buf4 d_lut_BUFX2
ABUFX2_83 [_4269_] _4269__bF$buf3 d_lut_BUFX2
ABUFX2_84 [_4269_] _4269__bF$buf2 d_lut_BUFX2
ABUFX2_85 [_4269_] _4269__bF$buf1 d_lut_BUFX2
ABUFX2_86 [_4269_] _4269__bF$buf0 d_lut_BUFX2
ABUFX2_87 [_3333_] _3333__bF$buf3 d_lut_BUFX2
ABUFX2_88 [_3333_] _3333__bF$buf2 d_lut_BUFX2
ABUFX2_89 [_3333_] _3333__bF$buf1 d_lut_BUFX2
ABUFX2_90 [_3333_] _3333__bF$buf0 d_lut_BUFX2
ABUFX2_91 [_1506_] _1506__bF$buf3 d_lut_BUFX2
ABUFX2_92 [_1506_] _1506__bF$buf2 d_lut_BUFX2
ABUFX2_93 [_1506_] _1506__bF$buf1 d_lut_BUFX2
ABUFX2_94 [_1506_] _1506__bF$buf0 d_lut_BUFX2
ABUFX4_164 [_550_] _550__bF$buf15 d_lut_BUFX4
ABUFX4_165 [_550_] _550__bF$buf14 d_lut_BUFX4
ABUFX4_166 [_550_] _550__bF$buf13 d_lut_BUFX4
ABUFX4_167 [_550_] _550__bF$buf12 d_lut_BUFX4
ABUFX4_168 [_550_] _550__bF$buf11 d_lut_BUFX4
ABUFX4_169 [_550_] _550__bF$buf10 d_lut_BUFX4
ABUFX4_170 [_550_] _550__bF$buf9 d_lut_BUFX4
ABUFX4_171 [_550_] _550__bF$buf8 d_lut_BUFX4
ABUFX4_172 [_550_] _550__bF$buf7 d_lut_BUFX4
ABUFX4_173 [_550_] _550__bF$buf6 d_lut_BUFX4
ABUFX4_174 [_550_] _550__bF$buf5 d_lut_BUFX4
ABUFX4_175 [_550_] _550__bF$buf4 d_lut_BUFX4
ABUFX4_176 [_550_] _550__bF$buf3 d_lut_BUFX4
ABUFX4_177 [_550_] _550__bF$buf2 d_lut_BUFX4
ABUFX4_178 [_550_] _550__bF$buf1 d_lut_BUFX4
ABUFX4_179 [_550_] _550__bF$buf0 d_lut_BUFX4
ABUFX2_95 [_1633_] _1633__bF$buf5 d_lut_BUFX2
ABUFX2_96 [_1633_] _1633__bF$buf4 d_lut_BUFX2
ABUFX2_97 [_1633_] _1633__bF$buf3 d_lut_BUFX2
ABUFX2_98 [_1633_] _1633__bF$buf2 d_lut_BUFX2
ABUFX2_99 [_1633_] _1633__bF$buf1 d_lut_BUFX2
ABUFX2_100 [_1633_] _1633__bF$buf0 d_lut_BUFX2
ABUFX2_101 [_53_] _53__bF$buf6 d_lut_BUFX2
ABUFX2_102 [_53_] _53__bF$buf5 d_lut_BUFX2
ABUFX2_103 [_53_] _53__bF$buf4 d_lut_BUFX2
ABUFX2_104 [_53_] _53__bF$buf3 d_lut_BUFX2
ABUFX2_105 [_53_] _53__bF$buf2 d_lut_BUFX2
ABUFX2_106 [_53_] _53__bF$buf1 d_lut_BUFX2
ABUFX2_107 [_53_] _53__bF$buf0 d_lut_BUFX2
ABUFX2_108 [concatenador.counter_2d_1_] concatenador.counter_2d_1_bF$buf6 d_lut_BUFX2
ABUFX2_109 [concatenador.counter_2d_1_] concatenador.counter_2d_1_bF$buf5 d_lut_BUFX2
ABUFX4_180 [concatenador.counter_2d_1_] concatenador.counter_2d_1_bF$buf4 d_lut_BUFX4
ABUFX2_110 [concatenador.counter_2d_1_] concatenador.counter_2d_1_bF$buf3 d_lut_BUFX2
ABUFX2_111 [concatenador.counter_2d_1_] concatenador.counter_2d_1_bF$buf2 d_lut_BUFX2
ABUFX2_112 [concatenador.counter_2d_1_] concatenador.counter_2d_1_bF$buf1 d_lut_BUFX2
ABUFX2_113 [concatenador.counter_2d_1_] concatenador.counter_2d_1_bF$buf0 d_lut_BUFX2
ABUFX2_114 [comparador.valid] comparador.valid_bF$buf5 d_lut_BUFX2
ABUFX2_115 [comparador.valid] comparador.valid_bF$buf4 d_lut_BUFX2
ABUFX2_116 [comparador.valid] comparador.valid_bF$buf3 d_lut_BUFX2
ABUFX2_117 [comparador.valid] comparador.valid_bF$buf2 d_lut_BUFX2
ABUFX4_181 [comparador.valid] comparador.valid_bF$buf1 d_lut_BUFX4
ABUFX2_118 [comparador.valid] comparador.valid_bF$buf0 d_lut_BUFX2
ABUFX2_119 [_3453_] _3453__bF$buf3 d_lut_BUFX2
ABUFX2_120 [_3453_] _3453__bF$buf2 d_lut_BUFX2
ABUFX2_121 [_3453_] _3453__bF$buf1 d_lut_BUFX2
ABUFX2_122 [_3453_] _3453__bF$buf0 d_lut_BUFX2
ABUFX4_182 [_2925_] _2925__bF$buf15 d_lut_BUFX4
ABUFX4_183 [_2925_] _2925__bF$buf14 d_lut_BUFX4
ABUFX4_184 [_2925_] _2925__bF$buf13 d_lut_BUFX4
ABUFX4_185 [_2925_] _2925__bF$buf12 d_lut_BUFX4
ABUFX4_186 [_2925_] _2925__bF$buf11 d_lut_BUFX4
ABUFX4_187 [_2925_] _2925__bF$buf10 d_lut_BUFX4
ABUFX4_188 [_2925_] _2925__bF$buf9 d_lut_BUFX4
ABUFX4_189 [_2925_] _2925__bF$buf8 d_lut_BUFX4
ABUFX4_190 [_2925_] _2925__bF$buf7 d_lut_BUFX4
ABUFX4_191 [_2925_] _2925__bF$buf6 d_lut_BUFX4
ABUFX4_192 [_2925_] _2925__bF$buf5 d_lut_BUFX4
ABUFX4_193 [_2925_] _2925__bF$buf4 d_lut_BUFX4
ABUFX4_194 [_2925_] _2925__bF$buf3 d_lut_BUFX4
ABUFX4_195 [_2925_] _2925__bF$buf2 d_lut_BUFX4
ABUFX4_196 [_2925_] _2925__bF$buf1 d_lut_BUFX4
ABUFX4_197 [_2925_] _2925__bF$buf0 d_lut_BUFX4
ABUFX2_123 [_4919_] _4919__bF$buf4 d_lut_BUFX2
ABUFX2_124 [_4919_] _4919__bF$buf3 d_lut_BUFX2
ABUFX2_125 [_4919_] _4919__bF$buf2 d_lut_BUFX2
ABUFX2_126 [_4919_] _4919__bF$buf1 d_lut_BUFX2
ABUFX2_127 [_4919_] _4919__bF$buf0 d_lut_BUFX2
ABUFX2_128 [_1679_] _1679__bF$buf3 d_lut_BUFX2
ABUFX2_129 [_1679_] _1679__bF$buf2 d_lut_BUFX2
ABUFX2_130 [_1679_] _1679__bF$buf1 d_lut_BUFX2
ABUFX2_131 [_1679_] _1679__bF$buf0 d_lut_BUFX2
ABUFX4_198 [_4740_] _4740__bF$buf13 d_lut_BUFX4
ABUFX4_199 [_4740_] _4740__bF$buf12 d_lut_BUFX4
ABUFX4_200 [_4740_] _4740__bF$buf11 d_lut_BUFX4
ABUFX4_201 [_4740_] _4740__bF$buf10 d_lut_BUFX4
ABUFX4_202 [_4740_] _4740__bF$buf9 d_lut_BUFX4
ABUFX4_203 [_4740_] _4740__bF$buf8 d_lut_BUFX4
ABUFX4_204 [_4740_] _4740__bF$buf7 d_lut_BUFX4
ABUFX4_205 [_4740_] _4740__bF$buf6 d_lut_BUFX4
ABUFX4_206 [_4740_] _4740__bF$buf5 d_lut_BUFX4
ABUFX4_207 [_4740_] _4740__bF$buf4 d_lut_BUFX4
ABUFX4_208 [_4740_] _4740__bF$buf3 d_lut_BUFX4
ABUFX4_209 [_4740_] _4740__bF$buf2 d_lut_BUFX4
ABUFX4_210 [_4740_] _4740__bF$buf1 d_lut_BUFX4
ABUFX4_211 [_4740_] _4740__bF$buf0 d_lut_BUFX4
ABUFX4_212 [_290_] _290__bF$buf15 d_lut_BUFX4
ABUFX4_213 [_290_] _290__bF$buf14 d_lut_BUFX4
ABUFX4_214 [_290_] _290__bF$buf13 d_lut_BUFX4
ABUFX4_215 [_290_] _290__bF$buf12 d_lut_BUFX4
ABUFX4_216 [_290_] _290__bF$buf11 d_lut_BUFX4
ABUFX4_217 [_290_] _290__bF$buf10 d_lut_BUFX4
ABUFX4_218 [_290_] _290__bF$buf9 d_lut_BUFX4
ABUFX4_219 [_290_] _290__bF$buf8 d_lut_BUFX4
ABUFX4_220 [_290_] _290__bF$buf7 d_lut_BUFX4
ABUFX4_221 [_290_] _290__bF$buf6 d_lut_BUFX4
ABUFX4_222 [_290_] _290__bF$buf5 d_lut_BUFX4
ABUFX4_223 [_290_] _290__bF$buf4 d_lut_BUFX4
ABUFX4_224 [_290_] _290__bF$buf3 d_lut_BUFX4
ABUFX4_225 [_290_] _290__bF$buf2 d_lut_BUFX4
ABUFX4_226 [_290_] _290__bF$buf1 d_lut_BUFX4
ABUFX4_227 [_290_] _290__bF$buf0 d_lut_BUFX4
ABUFX2_132 [_1614_] _1614__bF$buf3 d_lut_BUFX2
ABUFX2_133 [_1614_] _1614__bF$buf2 d_lut_BUFX2
ABUFX2_134 [_1614_] _1614__bF$buf1 d_lut_BUFX2
ABUFX2_135 [_1614_] _1614__bF$buf0 d_lut_BUFX2
ABUFX2_136 [_3439_] _3439__bF$buf3 d_lut_BUFX2
ABUFX2_137 [_3439_] _3439__bF$buf2 d_lut_BUFX2
ABUFX2_138 [_3439_] _3439__bF$buf1 d_lut_BUFX2
ABUFX2_139 [_3439_] _3439__bF$buf0 d_lut_BUFX2
ABUFX2_140 [_4997_] _4997__bF$buf6 d_lut_BUFX2
ABUFX2_141 [_4997_] _4997__bF$buf5 d_lut_BUFX2
ABUFX2_142 [_4997_] _4997__bF$buf4 d_lut_BUFX2
ABUFX2_143 [_4997_] _4997__bF$buf3 d_lut_BUFX2
ABUFX2_144 [_4997_] _4997__bF$buf2 d_lut_BUFX2
ABUFX2_145 [_4997_] _4997__bF$buf1 d_lut_BUFX2
ABUFX2_146 [_4997_] _4997__bF$buf0 d_lut_BUFX2
ABUFX4_228 [_4733_] _4733__bF$buf7 d_lut_BUFX4
ABUFX4_229 [_4733_] _4733__bF$buf6 d_lut_BUFX4
ABUFX4_230 [_4733_] _4733__bF$buf5 d_lut_BUFX4
ABUFX4_231 [_4733_] _4733__bF$buf4 d_lut_BUFX4
ABUFX2_147 [_4733_] _4733__bF$buf3 d_lut_BUFX2
ABUFX4_232 [_4733_] _4733__bF$buf2 d_lut_BUFX4
ABUFX4_233 [_4733_] _4733__bF$buf1 d_lut_BUFX4
ABUFX2_148 [_4733_] _4733__bF$buf0 d_lut_BUFX2
ABUFX2_149 [_855_] _855__bF$buf4 d_lut_BUFX2
ABUFX2_150 [_855_] _855__bF$buf3 d_lut_BUFX2
ABUFX2_151 [_855_] _855__bF$buf2 d_lut_BUFX2
ABUFX2_152 [_855_] _855__bF$buf1 d_lut_BUFX2
ABUFX2_153 [_855_] _855__bF$buf0 d_lut_BUFX2
ABUFX2_154 [_3332_] _3332__bF$buf3 d_lut_BUFX2
ABUFX2_155 [_3332_] _3332__bF$buf2 d_lut_BUFX2
ABUFX2_156 [_3332_] _3332__bF$buf1 d_lut_BUFX2
ABUFX2_157 [_3332_] _3332__bF$buf0 d_lut_BUFX2
ABUFX2_158 [_1632_] _1632__bF$buf4 d_lut_BUFX2
ABUFX2_159 [_1632_] _1632__bF$buf3 d_lut_BUFX2
ABUFX2_160 [_1632_] _1632__bF$buf2 d_lut_BUFX2
ABUFX2_161 [_1632_] _1632__bF$buf1 d_lut_BUFX2
ABUFX2_162 [_1632_] _1632__bF$buf0 d_lut_BUFX2
ABUFX2_163 [mux0.sel] mux0.sel_bF$buf5 d_lut_BUFX2
ABUFX2_164 [mux0.sel] mux0.sel_bF$buf4 d_lut_BUFX2
ABUFX2_165 [mux0.sel] mux0.sel_bF$buf3 d_lut_BUFX2
ABUFX2_166 [mux0.sel] mux0.sel_bF$buf2 d_lut_BUFX2
ABUFX2_167 [mux0.sel] mux0.sel_bF$buf1 d_lut_BUFX2
ABUFX2_168 [mux0.sel] mux0.sel_bF$buf0 d_lut_BUFX2
ABUFX4_234 [concatenador.counter_2d_0_] concatenador.counter_2d_0_bF$buf12 d_lut_BUFX4
ABUFX4_235 [concatenador.counter_2d_0_] concatenador.counter_2d_0_bF$buf11 d_lut_BUFX4
ABUFX4_236 [concatenador.counter_2d_0_] concatenador.counter_2d_0_bF$buf10 d_lut_BUFX4
ABUFX4_237 [concatenador.counter_2d_0_] concatenador.counter_2d_0_bF$buf9 d_lut_BUFX4
ABUFX4_238 [concatenador.counter_2d_0_] concatenador.counter_2d_0_bF$buf8 d_lut_BUFX4
ABUFX4_239 [concatenador.counter_2d_0_] concatenador.counter_2d_0_bF$buf7 d_lut_BUFX4
ABUFX4_240 [concatenador.counter_2d_0_] concatenador.counter_2d_0_bF$buf6 d_lut_BUFX4
ABUFX4_241 [concatenador.counter_2d_0_] concatenador.counter_2d_0_bF$buf5 d_lut_BUFX4
ABUFX4_242 [concatenador.counter_2d_0_] concatenador.counter_2d_0_bF$buf4 d_lut_BUFX4
ABUFX4_243 [concatenador.counter_2d_0_] concatenador.counter_2d_0_bF$buf3 d_lut_BUFX4
ABUFX4_244 [concatenador.counter_2d_0_] concatenador.counter_2d_0_bF$buf2 d_lut_BUFX4
ABUFX4_245 [concatenador.counter_2d_0_] concatenador.counter_2d_0_bF$buf1 d_lut_BUFX4
ABUFX4_246 [concatenador.counter_2d_0_] concatenador.counter_2d_0_bF$buf0 d_lut_BUFX4
ABUFX2_169 [_2459_] _2459__bF$buf6 d_lut_BUFX2
ABUFX2_170 [_2459_] _2459__bF$buf5 d_lut_BUFX2
ABUFX2_171 [_2459_] _2459__bF$buf4 d_lut_BUFX2
ABUFX2_172 [_2459_] _2459__bF$buf3 d_lut_BUFX2
ABUFX2_173 [_2459_] _2459__bF$buf2 d_lut_BUFX2
ABUFX2_174 [_2459_] _2459__bF$buf1 d_lut_BUFX2
ABUFX2_175 [_2459_] _2459__bF$buf0 d_lut_BUFX2
ABUFX2_176 [_1523_] _1523__bF$buf3 d_lut_BUFX2
ABUFX2_177 [_1523_] _1523__bF$buf2 d_lut_BUFX2
ABUFX2_178 [_1523_] _1523__bF$buf1 d_lut_BUFX2
ABUFX2_179 [_1523_] _1523__bF$buf0 d_lut_BUFX2
ABUFX2_180 [_10_] _10__bF$buf6 d_lut_BUFX2
ABUFX2_181 [_10_] _10__bF$buf5 d_lut_BUFX2
ABUFX2_182 [_10_] _10__bF$buf4 d_lut_BUFX2
ABUFX2_183 [_10_] _10__bF$buf3 d_lut_BUFX2
ABUFX2_184 [_10_] _10__bF$buf2 d_lut_BUFX2
ABUFX2_185 [_10_] _10__bF$buf1 d_lut_BUFX2
ABUFX2_186 [_10_] _10__bF$buf0 d_lut_BUFX2
ABUFX2_187 [_1_] _1__bF$buf5 d_lut_BUFX2
ABUFX2_188 [_1_] _1__bF$buf4 d_lut_BUFX2
ABUFX2_189 [_1_] _1__bF$buf3 d_lut_BUFX2
ABUFX2_190 [_1_] _1__bF$buf2 d_lut_BUFX2
ABUFX2_191 [_1_] _1__bF$buf1 d_lut_BUFX2
ABUFX2_192 [_1_] _1__bF$buf0 d_lut_BUFX2
ABUFX2_193 [_3440_] _3440__bF$buf4 d_lut_BUFX2
ABUFX2_194 [_3440_] _3440__bF$buf3 d_lut_BUFX2
ABUFX2_195 [_3440_] _3440__bF$buf2 d_lut_BUFX2
ABUFX2_196 [_3440_] _3440__bF$buf1 d_lut_BUFX2
ABUFX2_197 [_3440_] _3440__bF$buf0 d_lut_BUFX2
ABUFX2_198 [_1643_] _1643__bF$buf3 d_lut_BUFX2
ABUFX2_199 [_1643_] _1643__bF$buf2 d_lut_BUFX2
ABUFX2_200 [_1643_] _1643__bF$buf1 d_lut_BUFX2
ABUFX2_201 [_1643_] _1643__bF$buf0 d_lut_BUFX2
ABUFX2_202 [reset_L_hier0_bF$buf6] reset_L_bF$buf49 d_lut_BUFX2
ABUFX4_247 [reset_L_hier0_bF$buf5] reset_L_bF$buf48 d_lut_BUFX4
ABUFX2_203 [reset_L_hier0_bF$buf4] reset_L_bF$buf47 d_lut_BUFX2
ABUFX2_204 [reset_L_hier0_bF$buf3] reset_L_bF$buf46 d_lut_BUFX2
ABUFX2_205 [reset_L_hier0_bF$buf2] reset_L_bF$buf45 d_lut_BUFX2
ABUFX4_248 [reset_L_hier0_bF$buf1] reset_L_bF$buf44 d_lut_BUFX4
ABUFX2_206 [reset_L_hier0_bF$buf0] reset_L_bF$buf43 d_lut_BUFX2
ABUFX2_207 [reset_L_hier0_bF$buf6] reset_L_bF$buf42 d_lut_BUFX2
ABUFX2_208 [reset_L_hier0_bF$buf5] reset_L_bF$buf41 d_lut_BUFX2
ABUFX2_209 [reset_L_hier0_bF$buf4] reset_L_bF$buf40 d_lut_BUFX2
ABUFX2_210 [reset_L_hier0_bF$buf3] reset_L_bF$buf39 d_lut_BUFX2
ABUFX2_211 [reset_L_hier0_bF$buf2] reset_L_bF$buf38 d_lut_BUFX2
ABUFX2_212 [reset_L_hier0_bF$buf1] reset_L_bF$buf37 d_lut_BUFX2
ABUFX2_213 [reset_L_hier0_bF$buf0] reset_L_bF$buf36 d_lut_BUFX2
ABUFX2_214 [reset_L_hier0_bF$buf6] reset_L_bF$buf35 d_lut_BUFX2
ABUFX2_215 [reset_L_hier0_bF$buf5] reset_L_bF$buf34 d_lut_BUFX2
ABUFX2_216 [reset_L_hier0_bF$buf4] reset_L_bF$buf33 d_lut_BUFX2
ABUFX2_217 [reset_L_hier0_bF$buf3] reset_L_bF$buf32 d_lut_BUFX2
ABUFX2_218 [reset_L_hier0_bF$buf2] reset_L_bF$buf31 d_lut_BUFX2
ABUFX2_219 [reset_L_hier0_bF$buf1] reset_L_bF$buf30 d_lut_BUFX2
ABUFX2_220 [reset_L_hier0_bF$buf0] reset_L_bF$buf29 d_lut_BUFX2
ABUFX2_221 [reset_L_hier0_bF$buf6] reset_L_bF$buf28 d_lut_BUFX2
ABUFX2_222 [reset_L_hier0_bF$buf5] reset_L_bF$buf27 d_lut_BUFX2
ABUFX2_223 [reset_L_hier0_bF$buf4] reset_L_bF$buf26 d_lut_BUFX2
ABUFX2_224 [reset_L_hier0_bF$buf3] reset_L_bF$buf25 d_lut_BUFX2
ABUFX2_225 [reset_L_hier0_bF$buf2] reset_L_bF$buf24 d_lut_BUFX2
ABUFX2_226 [reset_L_hier0_bF$buf1] reset_L_bF$buf23 d_lut_BUFX2
ABUFX2_227 [reset_L_hier0_bF$buf0] reset_L_bF$buf22 d_lut_BUFX2
ABUFX2_228 [reset_L_hier0_bF$buf6] reset_L_bF$buf21 d_lut_BUFX2
ABUFX2_229 [reset_L_hier0_bF$buf5] reset_L_bF$buf20 d_lut_BUFX2
ABUFX2_230 [reset_L_hier0_bF$buf4] reset_L_bF$buf19 d_lut_BUFX2
ABUFX2_231 [reset_L_hier0_bF$buf3] reset_L_bF$buf18 d_lut_BUFX2
ABUFX2_232 [reset_L_hier0_bF$buf2] reset_L_bF$buf17 d_lut_BUFX2
ABUFX2_233 [reset_L_hier0_bF$buf1] reset_L_bF$buf16 d_lut_BUFX2
ABUFX2_234 [reset_L_hier0_bF$buf0] reset_L_bF$buf15 d_lut_BUFX2
ABUFX2_235 [reset_L_hier0_bF$buf6] reset_L_bF$buf14 d_lut_BUFX2
ABUFX2_236 [reset_L_hier0_bF$buf5] reset_L_bF$buf13 d_lut_BUFX2
ABUFX2_237 [reset_L_hier0_bF$buf4] reset_L_bF$buf12 d_lut_BUFX2
ABUFX2_238 [reset_L_hier0_bF$buf3] reset_L_bF$buf11 d_lut_BUFX2
ABUFX2_239 [reset_L_hier0_bF$buf2] reset_L_bF$buf10 d_lut_BUFX2
ABUFX2_240 [reset_L_hier0_bF$buf1] reset_L_bF$buf9 d_lut_BUFX2
ABUFX2_241 [reset_L_hier0_bF$buf0] reset_L_bF$buf8 d_lut_BUFX2
ABUFX2_242 [reset_L_hier0_bF$buf6] reset_L_bF$buf7 d_lut_BUFX2
ABUFX2_243 [reset_L_hier0_bF$buf5] reset_L_bF$buf6 d_lut_BUFX2
ABUFX2_244 [reset_L_hier0_bF$buf4] reset_L_bF$buf5 d_lut_BUFX2
ABUFX4_249 [reset_L_hier0_bF$buf3] reset_L_bF$buf4 d_lut_BUFX4
ABUFX2_245 [reset_L_hier0_bF$buf2] reset_L_bF$buf3 d_lut_BUFX2
ABUFX2_246 [reset_L_hier0_bF$buf1] reset_L_bF$buf2 d_lut_BUFX2
ABUFX2_247 [reset_L_hier0_bF$buf0] reset_L_bF$buf1 d_lut_BUFX2
ABUFX4_250 [reset_L_hier0_bF$buf6] reset_L_bF$buf0 d_lut_BUFX4
ABUFX4_251 [_2930_] _2930__bF$buf13 d_lut_BUFX4
ABUFX4_252 [_2930_] _2930__bF$buf12 d_lut_BUFX4
ABUFX4_253 [_2930_] _2930__bF$buf11 d_lut_BUFX4
ABUFX4_254 [_2930_] _2930__bF$buf10 d_lut_BUFX4
ABUFX4_255 [_2930_] _2930__bF$buf9 d_lut_BUFX4
ABUFX4_256 [_2930_] _2930__bF$buf8 d_lut_BUFX4
ABUFX4_257 [_2930_] _2930__bF$buf7 d_lut_BUFX4
ABUFX4_258 [_2930_] _2930__bF$buf6 d_lut_BUFX4
ABUFX4_259 [_2930_] _2930__bF$buf5 d_lut_BUFX4
ABUFX4_260 [_2930_] _2930__bF$buf4 d_lut_BUFX4
ABUFX4_261 [_2930_] _2930__bF$buf3 d_lut_BUFX4
ABUFX4_262 [_2930_] _2930__bF$buf2 d_lut_BUFX4
ABUFX4_263 [_2930_] _2930__bF$buf1 d_lut_BUFX4
ABUFX4_264 [_2930_] _2930__bF$buf0 d_lut_BUFX4
ABUFX2_248 [_1629_] _1629__bF$buf3 d_lut_BUFX2
ABUFX2_249 [_1629_] _1629__bF$buf2 d_lut_BUFX2
ABUFX2_250 [_1629_] _1629__bF$buf1 d_lut_BUFX2
ABUFX2_251 [_1629_] _1629__bF$buf0 d_lut_BUFX2
ABUFX2_252 [_2923_] _2923__bF$buf7 d_lut_BUFX2
ABUFX4_265 [_2923_] _2923__bF$buf6 d_lut_BUFX4
ABUFX4_266 [_2923_] _2923__bF$buf5 d_lut_BUFX4
ABUFX4_267 [_2923_] _2923__bF$buf4 d_lut_BUFX4
ABUFX2_253 [_2923_] _2923__bF$buf3 d_lut_BUFX2
ABUFX4_268 [_2923_] _2923__bF$buf2 d_lut_BUFX4
ABUFX2_254 [_2923_] _2923__bF$buf1 d_lut_BUFX2
ABUFX2_255 [_2923_] _2923__bF$buf0 d_lut_BUFX2
ABUFX2_256 [_1522_] _1522__bF$buf3 d_lut_BUFX2
ABUFX2_257 [_1522_] _1522__bF$buf2 d_lut_BUFX2
ABUFX2_258 [_1522_] _1522__bF$buf1 d_lut_BUFX2
ABUFX2_259 [_1522_] _1522__bF$buf0 d_lut_BUFX2
ABUFX2_260 [_5012_] _5012__bF$buf6 d_lut_BUFX2
ABUFX2_261 [_5012_] _5012__bF$buf5 d_lut_BUFX2
ABUFX2_262 [_5012_] _5012__bF$buf4 d_lut_BUFX2
ABUFX2_263 [_5012_] _5012__bF$buf3 d_lut_BUFX2
ABUFX2_264 [_5012_] _5012__bF$buf2 d_lut_BUFX2
ABUFX2_265 [_5012_] _5012__bF$buf1 d_lut_BUFX2
ABUFX2_266 [_5012_] _5012__bF$buf0 d_lut_BUFX2
ABUFX2_267 [concatenador.counter_1_] concatenador.counter_1_bF$buf7 d_lut_BUFX2